*SPEF "ieee 1481-1999"
*DESIGN "N_term_RAM_IO"
*DATE "11:11:11 Fri 11 11, 1111"
*VENDOR "OpenRCX"
*PROGRAM "Parallel Extraction"
*VERSION "1.0"
*DESIGN_FLOW "NAME_SCOPE LOCAL" "PIN_CAP NONE"
*DIVIDER /
*DELIMITER :
*BUS_DELIMITER []
*T_UNIT 1 NS
*C_UNIT 1 PF
*R_UNIT 1 OHM
*L_UNIT 1 HENRY

*NAME_MAP
*1 FrameStrobe[0]
*2 FrameStrobe[10]
*3 FrameStrobe[11]
*4 FrameStrobe[12]
*5 FrameStrobe[13]
*6 FrameStrobe[14]
*7 FrameStrobe[15]
*8 FrameStrobe[16]
*9 FrameStrobe[17]
*10 FrameStrobe[18]
*11 FrameStrobe[19]
*12 FrameStrobe[1]
*13 FrameStrobe[2]
*14 FrameStrobe[3]
*15 FrameStrobe[4]
*16 FrameStrobe[5]
*17 FrameStrobe[6]
*18 FrameStrobe[7]
*19 FrameStrobe[8]
*20 FrameStrobe[9]
*21 FrameStrobe_O[0]
*22 FrameStrobe_O[10]
*23 FrameStrobe_O[11]
*24 FrameStrobe_O[12]
*25 FrameStrobe_O[13]
*26 FrameStrobe_O[14]
*27 FrameStrobe_O[15]
*28 FrameStrobe_O[16]
*29 FrameStrobe_O[17]
*30 FrameStrobe_O[18]
*31 FrameStrobe_O[19]
*32 FrameStrobe_O[1]
*33 FrameStrobe_O[2]
*34 FrameStrobe_O[3]
*35 FrameStrobe_O[4]
*36 FrameStrobe_O[5]
*37 FrameStrobe_O[6]
*38 FrameStrobe_O[7]
*39 FrameStrobe_O[8]
*40 FrameStrobe_O[9]
*41 N1END[0]
*42 N1END[1]
*43 N1END[2]
*44 N1END[3]
*45 N2END[0]
*46 N2END[1]
*47 N2END[2]
*48 N2END[3]
*49 N2END[4]
*50 N2END[5]
*51 N2END[6]
*52 N2END[7]
*53 N2MID[0]
*54 N2MID[1]
*55 N2MID[2]
*56 N2MID[3]
*57 N2MID[4]
*58 N2MID[5]
*59 N2MID[6]
*60 N2MID[7]
*61 N4END[0]
*62 N4END[10]
*63 N4END[11]
*64 N4END[12]
*65 N4END[13]
*66 N4END[14]
*67 N4END[15]
*68 N4END[1]
*69 N4END[2]
*70 N4END[3]
*71 N4END[4]
*72 N4END[5]
*73 N4END[6]
*74 N4END[7]
*75 N4END[8]
*76 N4END[9]
*77 S1BEG[0]
*78 S1BEG[1]
*79 S1BEG[2]
*80 S1BEG[3]
*81 S2BEG[0]
*82 S2BEG[1]
*83 S2BEG[2]
*84 S2BEG[3]
*85 S2BEG[4]
*86 S2BEG[5]
*87 S2BEG[6]
*88 S2BEG[7]
*89 S2BEGb[0]
*90 S2BEGb[1]
*91 S2BEGb[2]
*92 S2BEGb[3]
*93 S2BEGb[4]
*94 S2BEGb[5]
*95 S2BEGb[6]
*96 S2BEGb[7]
*97 S4BEG[0]
*98 S4BEG[10]
*99 S4BEG[11]
*100 S4BEG[12]
*101 S4BEG[13]
*102 S4BEG[14]
*103 S4BEG[15]
*104 S4BEG[1]
*105 S4BEG[2]
*106 S4BEG[3]
*107 S4BEG[4]
*108 S4BEG[5]
*109 S4BEG[6]
*110 S4BEG[7]
*111 S4BEG[8]
*112 S4BEG[9]
*113 UserCLK
*114 UserCLKo
*117 Inst_N_term_RAM_IO_switch_matrix\.S1BEG0
*118 Inst_N_term_RAM_IO_switch_matrix\.S1BEG1
*119 Inst_N_term_RAM_IO_switch_matrix\.S1BEG2
*120 Inst_N_term_RAM_IO_switch_matrix\.S1BEG3
*121 Inst_N_term_RAM_IO_switch_matrix\.S2BEG0
*122 Inst_N_term_RAM_IO_switch_matrix\.S2BEG1
*123 Inst_N_term_RAM_IO_switch_matrix\.S2BEG2
*124 Inst_N_term_RAM_IO_switch_matrix\.S2BEG3
*125 Inst_N_term_RAM_IO_switch_matrix\.S2BEG4
*126 Inst_N_term_RAM_IO_switch_matrix\.S2BEG5
*127 Inst_N_term_RAM_IO_switch_matrix\.S2BEG6
*128 Inst_N_term_RAM_IO_switch_matrix\.S2BEG7
*129 Inst_N_term_RAM_IO_switch_matrix\.S2BEGb0
*130 Inst_N_term_RAM_IO_switch_matrix\.S2BEGb1
*131 Inst_N_term_RAM_IO_switch_matrix\.S2BEGb2
*132 Inst_N_term_RAM_IO_switch_matrix\.S2BEGb3
*133 Inst_N_term_RAM_IO_switch_matrix\.S2BEGb4
*134 Inst_N_term_RAM_IO_switch_matrix\.S2BEGb5
*135 Inst_N_term_RAM_IO_switch_matrix\.S2BEGb6
*136 Inst_N_term_RAM_IO_switch_matrix\.S2BEGb7
*137 Inst_N_term_RAM_IO_switch_matrix\.S4BEG0
*138 Inst_N_term_RAM_IO_switch_matrix\.S4BEG1
*139 Inst_N_term_RAM_IO_switch_matrix\.S4BEG10
*140 Inst_N_term_RAM_IO_switch_matrix\.S4BEG11
*141 Inst_N_term_RAM_IO_switch_matrix\.S4BEG12
*142 Inst_N_term_RAM_IO_switch_matrix\.S4BEG13
*143 Inst_N_term_RAM_IO_switch_matrix\.S4BEG14
*144 Inst_N_term_RAM_IO_switch_matrix\.S4BEG15
*145 Inst_N_term_RAM_IO_switch_matrix\.S4BEG2
*146 Inst_N_term_RAM_IO_switch_matrix\.S4BEG3
*147 Inst_N_term_RAM_IO_switch_matrix\.S4BEG4
*148 Inst_N_term_RAM_IO_switch_matrix\.S4BEG5
*149 Inst_N_term_RAM_IO_switch_matrix\.S4BEG6
*150 Inst_N_term_RAM_IO_switch_matrix\.S4BEG7
*151 Inst_N_term_RAM_IO_switch_matrix\.S4BEG8
*152 Inst_N_term_RAM_IO_switch_matrix\.S4BEG9
*153 net1
*154 net10
*155 net100
*156 net101
*157 net102
*158 net103
*159 net104
*160 net105
*161 net106
*162 net107
*163 net108
*164 net109
*165 net11
*166 net110
*167 net111
*168 net112
*169 net113
*170 net114
*171 net12
*172 net13
*173 net14
*174 net15
*175 net16
*176 net17
*177 net18
*178 net19
*179 net2
*180 net20
*181 net21
*182 net22
*183 net23
*184 net24
*185 net25
*186 net26
*187 net27
*188 net28
*189 net29
*190 net3
*191 net30
*192 net31
*193 net32
*194 net33
*195 net34
*196 net35
*197 net36
*198 net37
*199 net38
*200 net39
*201 net4
*202 net40
*203 net41
*204 net42
*205 net43
*206 net44
*207 net45
*208 net46
*209 net47
*210 net48
*211 net49
*212 net5
*213 net50
*214 net51
*215 net52
*216 net53
*217 net54
*218 net55
*219 net56
*220 net57
*221 net58
*222 net59
*223 net6
*224 net60
*225 net61
*226 net62
*227 net63
*228 net64
*229 net65
*230 net66
*231 net67
*232 net68
*233 net69
*234 net7
*235 net70
*236 net71
*237 net72
*238 net73
*239 net74
*240 net75
*241 net76
*242 net77
*243 net78
*244 net79
*245 net8
*246 net80
*247 net81
*248 net82
*249 net83
*250 net84
*251 net85
*252 net86
*253 net87
*254 net88
*255 net89
*256 net9
*257 net90
*258 net91
*259 net92
*260 net93
*261 net94
*262 net95
*263 net96
*264 net97
*265 net98
*266 net99
*267 strobe_inbuf_0\.X
*268 strobe_inbuf_1\.X
*269 strobe_inbuf_10\.X
*270 strobe_inbuf_11\.X
*271 strobe_inbuf_12\.X
*272 strobe_inbuf_13\.X
*273 strobe_inbuf_14\.X
*274 strobe_inbuf_15\.X
*275 strobe_inbuf_16\.X
*276 strobe_inbuf_17\.X
*277 strobe_inbuf_18\.X
*278 strobe_inbuf_19\.X
*279 strobe_inbuf_2\.X
*280 strobe_inbuf_3\.X
*281 strobe_inbuf_4\.X
*282 strobe_inbuf_5\.X
*283 strobe_inbuf_6\.X
*284 strobe_inbuf_7\.X
*285 strobe_inbuf_8\.X
*286 strobe_inbuf_9\.X
*287 strobe_outbuf_0\.X
*288 strobe_outbuf_1\.X
*289 strobe_outbuf_10\.X
*290 strobe_outbuf_11\.X
*291 strobe_outbuf_12\.X
*292 strobe_outbuf_13\.X
*293 strobe_outbuf_14\.X
*294 strobe_outbuf_15\.X
*295 strobe_outbuf_16\.X
*296 strobe_outbuf_17\.X
*297 strobe_outbuf_18\.X
*298 strobe_outbuf_19\.X
*299 strobe_outbuf_2\.X
*300 strobe_outbuf_3\.X
*301 strobe_outbuf_4\.X
*302 strobe_outbuf_5\.X
*303 strobe_outbuf_6\.X
*304 strobe_outbuf_7\.X
*305 strobe_outbuf_8\.X
*306 strobe_outbuf_9\.X
*307 ANTENNA_1
*308 ANTENNA_2
*309 ANTENNA_3
*310 FILLER_0_0_110
*311 FILLER_0_0_126
*312 FILLER_0_0_136
*313 FILLER_0_0_151
*314 FILLER_0_0_253
*315 FILLER_0_0_3
*316 FILLER_0_0_85
*317 FILLER_0_1_10
*318 FILLER_0_1_138
*319 FILLER_0_1_169
*320 FILLER_0_1_231
*321 FILLER_0_1_241
*322 FILLER_0_1_254
*323 FILLER_0_1_3
*324 FILLER_0_1_57
*325 FILLER_0_2_102
*326 FILLER_0_2_106
*327 FILLER_0_2_110
*328 FILLER_0_2_128
*329 FILLER_0_2_133
*330 FILLER_0_2_139
*331 FILLER_0_2_141
*332 FILLER_0_2_149
*333 FILLER_0_2_15
*334 FILLER_0_2_158
*335 FILLER_0_2_195
*336 FILLER_0_2_215
*337 FILLER_0_2_227
*338 FILLER_0_2_253
*339 FILLER_0_2_27
*340 FILLER_0_2_29
*341 FILLER_0_2_37
*342 FILLER_0_2_42
*343 FILLER_0_2_57
*344 FILLER_0_2_65
*345 FILLER_0_2_69
*346 FILLER_0_2_81
*347 FILLER_0_2_85
*348 FILLER_0_2_89
*349 FILLER_0_2_96
*350 FILLER_0_3_105
*351 FILLER_0_3_111
*352 FILLER_0_3_113
*353 FILLER_0_3_125
*354 FILLER_0_3_137
*355 FILLER_0_3_149
*356 FILLER_0_3_15
*357 FILLER_0_3_161
*358 FILLER_0_3_167
*359 FILLER_0_3_169
*360 FILLER_0_3_181
*361 FILLER_0_3_193
*362 FILLER_0_3_205
*363 FILLER_0_3_217
*364 FILLER_0_3_223
*365 FILLER_0_3_225
*366 FILLER_0_3_237
*367 FILLER_0_3_253
*368 FILLER_0_3_27
*369 FILLER_0_3_3
*370 FILLER_0_3_39
*371 FILLER_0_3_51
*372 FILLER_0_3_55
*373 FILLER_0_3_57
*374 FILLER_0_3_69
*375 FILLER_0_3_81
*376 FILLER_0_3_93
*377 FILLER_0_4_109
*378 FILLER_0_4_121
*379 FILLER_0_4_133
*380 FILLER_0_4_139
*381 FILLER_0_4_141
*382 FILLER_0_4_15
*383 FILLER_0_4_153
*384 FILLER_0_4_165
*385 FILLER_0_4_177
*386 FILLER_0_4_189
*387 FILLER_0_4_195
*388 FILLER_0_4_197
*389 FILLER_0_4_209
*390 FILLER_0_4_221
*391 FILLER_0_4_233
*392 FILLER_0_4_245
*393 FILLER_0_4_251
*394 FILLER_0_4_253
*395 FILLER_0_4_27
*396 FILLER_0_4_29
*397 FILLER_0_4_3
*398 FILLER_0_4_41
*399 FILLER_0_4_53
*400 FILLER_0_4_65
*401 FILLER_0_4_77
*402 FILLER_0_4_83
*403 FILLER_0_4_85
*404 FILLER_0_4_97
*405 FILLER_0_5_105
*406 FILLER_0_5_111
*407 FILLER_0_5_113
*408 FILLER_0_5_125
*409 FILLER_0_5_137
*410 FILLER_0_5_149
*411 FILLER_0_5_15
*412 FILLER_0_5_161
*413 FILLER_0_5_167
*414 FILLER_0_5_169
*415 FILLER_0_5_181
*416 FILLER_0_5_193
*417 FILLER_0_5_205
*418 FILLER_0_5_217
*419 FILLER_0_5_223
*420 FILLER_0_5_225
*421 FILLER_0_5_237
*422 FILLER_0_5_249
*423 FILLER_0_5_27
*424 FILLER_0_5_3
*425 FILLER_0_5_39
*426 FILLER_0_5_51
*427 FILLER_0_5_55
*428 FILLER_0_5_57
*429 FILLER_0_5_69
*430 FILLER_0_5_81
*431 FILLER_0_5_93
*432 FILLER_0_6_109
*433 FILLER_0_6_121
*434 FILLER_0_6_133
*435 FILLER_0_6_139
*436 FILLER_0_6_141
*437 FILLER_0_6_15
*438 FILLER_0_6_153
*439 FILLER_0_6_165
*440 FILLER_0_6_177
*441 FILLER_0_6_189
*442 FILLER_0_6_195
*443 FILLER_0_6_197
*444 FILLER_0_6_209
*445 FILLER_0_6_221
*446 FILLER_0_6_233
*447 FILLER_0_6_245
*448 FILLER_0_6_253
*449 FILLER_0_6_27
*450 FILLER_0_6_29
*451 FILLER_0_6_3
*452 FILLER_0_6_41
*453 FILLER_0_6_53
*454 FILLER_0_6_65
*455 FILLER_0_6_77
*456 FILLER_0_6_83
*457 FILLER_0_6_85
*458 FILLER_0_6_97
*459 FILLER_0_7_106
*460 FILLER_0_7_111
*461 FILLER_0_7_113
*462 FILLER_0_7_117
*463 FILLER_0_7_121
*464 FILLER_0_7_126
*465 FILLER_0_7_132
*466 FILLER_0_7_137
*467 FILLER_0_7_145
*468 FILLER_0_7_15
*469 FILLER_0_7_152
*470 FILLER_0_7_160
*471 FILLER_0_7_164
*472 FILLER_0_7_169
*473 FILLER_0_7_173
*474 FILLER_0_7_177
*475 FILLER_0_7_185
*476 FILLER_0_7_191
*477 FILLER_0_7_203
*478 FILLER_0_7_208
*479 FILLER_0_7_220
*480 FILLER_0_7_225
*481 FILLER_0_7_237
*482 FILLER_0_7_249
*483 FILLER_0_7_253
*484 FILLER_0_7_27
*485 FILLER_0_7_3
*486 FILLER_0_7_39
*487 FILLER_0_7_51
*488 FILLER_0_7_55
*489 FILLER_0_7_60
*490 FILLER_0_7_68
*491 FILLER_0_7_73
*492 FILLER_0_7_81
*493 FILLER_0_7_86
*494 FILLER_0_7_94
*495 FILLER_0_7_98
*496 FILLER_0_8_104
*497 FILLER_0_8_109
*498 FILLER_0_8_115
*499 FILLER_0_8_119
*500 FILLER_0_8_124
*501 FILLER_0_8_135
*502 FILLER_0_8_139
*503 FILLER_0_8_141
*504 FILLER_0_8_15
*505 FILLER_0_8_150
*506 FILLER_0_8_158
*507 FILLER_0_8_162
*508 FILLER_0_8_170
*509 FILLER_0_8_175
*510 FILLER_0_8_183
*511 FILLER_0_8_189
*512 FILLER_0_8_195
*513 FILLER_0_8_197
*514 FILLER_0_8_206
*515 FILLER_0_8_218
*516 FILLER_0_8_230
*517 FILLER_0_8_242
*518 FILLER_0_8_253
*519 FILLER_0_8_27
*520 FILLER_0_8_29
*521 FILLER_0_8_3
*522 FILLER_0_8_41
*523 FILLER_0_8_53
*524 FILLER_0_8_57
*525 FILLER_0_8_65
*526 FILLER_0_8_71
*527 FILLER_0_8_79
*528 FILLER_0_8_85
*529 FILLER_0_8_96
*530 FILLER_0_9_110
*531 FILLER_0_9_113
*532 FILLER_0_9_126
*533 FILLER_0_9_136
*534 FILLER_0_9_162
*535 FILLER_0_9_17
*536 FILLER_0_9_178
*537 FILLER_0_9_188
*538 FILLER_0_9_206
*539 FILLER_0_9_217
*540 FILLER_0_9_228
*541 FILLER_0_9_240
*542 FILLER_0_9_25
*543 FILLER_0_9_253
*544 FILLER_0_9_35
*545 FILLER_0_9_42
*546 FILLER_0_9_48
*547 FILLER_0_9_55
*548 FILLER_0_9_60
*549 FILLER_0_9_71
*550 FILLER_0_9_85
*551 FILLER_0_9_9
*552 FILLER_0_9_97
*553 Inst_N_term_RAM_IO_switch_matrix\._00_
*554 Inst_N_term_RAM_IO_switch_matrix\._01_
*555 Inst_N_term_RAM_IO_switch_matrix\._02_
*556 Inst_N_term_RAM_IO_switch_matrix\._03_
*557 Inst_N_term_RAM_IO_switch_matrix\._04_
*558 Inst_N_term_RAM_IO_switch_matrix\._05_
*559 Inst_N_term_RAM_IO_switch_matrix\._06_
*560 Inst_N_term_RAM_IO_switch_matrix\._07_
*561 Inst_N_term_RAM_IO_switch_matrix\._08_
*562 Inst_N_term_RAM_IO_switch_matrix\._09_
*563 Inst_N_term_RAM_IO_switch_matrix\._10_
*564 Inst_N_term_RAM_IO_switch_matrix\._11_
*565 Inst_N_term_RAM_IO_switch_matrix\._12_
*566 Inst_N_term_RAM_IO_switch_matrix\._13_
*567 Inst_N_term_RAM_IO_switch_matrix\._14_
*568 Inst_N_term_RAM_IO_switch_matrix\._15_
*569 Inst_N_term_RAM_IO_switch_matrix\._16_
*570 Inst_N_term_RAM_IO_switch_matrix\._17_
*571 Inst_N_term_RAM_IO_switch_matrix\._18_
*572 Inst_N_term_RAM_IO_switch_matrix\._19_
*573 Inst_N_term_RAM_IO_switch_matrix\._20_
*574 Inst_N_term_RAM_IO_switch_matrix\._21_
*575 Inst_N_term_RAM_IO_switch_matrix\._22_
*576 Inst_N_term_RAM_IO_switch_matrix\._23_
*577 Inst_N_term_RAM_IO_switch_matrix\._24_
*578 Inst_N_term_RAM_IO_switch_matrix\._25_
*579 Inst_N_term_RAM_IO_switch_matrix\._26_
*580 Inst_N_term_RAM_IO_switch_matrix\._27_
*581 Inst_N_term_RAM_IO_switch_matrix\._28_
*582 Inst_N_term_RAM_IO_switch_matrix\._29_
*583 Inst_N_term_RAM_IO_switch_matrix\._30_
*584 Inst_N_term_RAM_IO_switch_matrix\._31_
*585 Inst_N_term_RAM_IO_switch_matrix\._32_
*586 Inst_N_term_RAM_IO_switch_matrix\._33_
*587 Inst_N_term_RAM_IO_switch_matrix\._34_
*588 Inst_N_term_RAM_IO_switch_matrix\._35_
*589 PHY_0
*590 PHY_1
*591 PHY_10
*592 PHY_11
*593 PHY_12
*594 PHY_13
*595 PHY_14
*596 PHY_15
*597 PHY_16
*598 PHY_17
*599 PHY_18
*600 PHY_19
*601 PHY_2
*602 PHY_3
*603 PHY_4
*604 PHY_5
*605 PHY_6
*606 PHY_7
*607 PHY_8
*608 PHY_9
*609 TAP_20
*610 TAP_21
*611 TAP_22
*612 TAP_23
*613 TAP_24
*614 TAP_25
*615 TAP_26
*616 TAP_27
*617 TAP_28
*618 TAP_29
*619 TAP_30
*620 TAP_31
*621 TAP_32
*622 TAP_33
*623 TAP_34
*624 TAP_35
*625 TAP_36
*626 TAP_37
*627 TAP_38
*628 TAP_39
*629 TAP_40
*630 TAP_41
*631 TAP_42
*632 TAP_43
*633 TAP_44
*634 TAP_45
*635 TAP_46
*636 TAP_47
*637 TAP_48
*638 TAP_49
*639 TAP_50
*640 TAP_51
*641 TAP_52
*642 TAP_53
*643 TAP_54
*644 TAP_55
*645 TAP_56
*646 TAP_57
*647 TAP_58
*648 TAP_59
*649 TAP_60
*650 TAP_61
*651 TAP_62
*652 TAP_63
*653 TAP_64
*654 TAP_65
*655 TAP_66
*656 TAP_67
*657 TAP_68
*658 TAP_69
*659 TAP_70
*660 TAP_71
*661 TAP_72
*662 TAP_73
*663 _00_
*664 _01_
*665 _02_
*666 _03_
*667 _04_
*668 _05_
*669 _06_
*670 _07_
*671 _08_
*672 _09_
*673 _10_
*674 _11_
*675 _12_
*676 _13_
*677 _14_
*678 _15_
*679 _16_
*680 _17_
*681 _18_
*682 _19_
*683 _20_
*684 _21_
*685 _22_
*686 _23_
*687 _24_
*688 _25_
*689 _26_
*690 _27_
*691 _28_
*692 _29_
*693 _30_
*694 _31_
*695 _32_
*696 _33_
*697 _34_
*698 _35_
*699 _36_
*700 _37_
*701 _38_
*702 _39_
*703 _40_
*704 _41_
*705 _42_
*706 _43_
*707 _44_
*708 _45_
*709 _46_
*710 _47_
*711 _48_
*712 _49_
*713 _50_
*714 _51_
*715 _52_
*716 _53_
*717 _54_
*718 _55_
*719 input1
*720 input10
*721 input11
*722 input12
*723 input13
*724 input14
*725 input15
*726 input16
*727 input17
*728 input18
*729 input19
*730 input2
*731 input20
*732 input21
*733 input22
*734 input23
*735 input24
*736 input25
*737 input26
*738 input27
*739 input28
*740 input29
*741 input3
*742 input30
*743 input31
*744 input32
*745 input33
*746 input34
*747 input35
*748 input36
*749 input37
*750 input38
*751 input39
*752 input4
*753 input40
*754 input41
*755 input42
*756 input43
*757 input44
*758 input45
*759 input46
*760 input47
*761 input48
*762 input49
*763 input5
*764 input50
*765 input51
*766 input52
*767 input53
*768 input54
*769 input55
*770 input56
*771 input57
*772 input6
*773 input7
*774 input8
*775 input9
*776 inst_clk_buf
*777 output100
*778 output101
*779 output102
*780 output103
*781 output104
*782 output105
*783 output106
*784 output107
*785 output108
*786 output109
*787 output110
*788 output111
*789 output112
*790 output113
*791 output114
*792 output58
*793 output59
*794 output60
*795 output61
*796 output62
*797 output63
*798 output64
*799 output65
*800 output66
*801 output67
*802 output68
*803 output69
*804 output70
*805 output71
*806 output72
*807 output73
*808 output74
*809 output75
*810 output76
*811 output77
*812 output78
*813 output79
*814 output80
*815 output81
*816 output82
*817 output83
*818 output84
*819 output85
*820 output86
*821 output87
*822 output88
*823 output89
*824 output90
*825 output91
*826 output92
*827 output93
*828 output94
*829 output95
*830 output96
*831 output97
*832 output98
*833 output99
*834 strobe_inbuf_0\._0_
*835 strobe_inbuf_1\._0_
*836 strobe_inbuf_10\._0_
*837 strobe_inbuf_11\._0_
*838 strobe_inbuf_12\._0_
*839 strobe_inbuf_13\._0_
*840 strobe_inbuf_14\._0_
*841 strobe_inbuf_15\._0_
*842 strobe_inbuf_16\._0_
*843 strobe_inbuf_17\._0_
*844 strobe_inbuf_18\._0_
*845 strobe_inbuf_19\._0_
*846 strobe_inbuf_2\._0_
*847 strobe_inbuf_3\._0_
*848 strobe_inbuf_4\._0_
*849 strobe_inbuf_5\._0_
*850 strobe_inbuf_6\._0_
*851 strobe_inbuf_7\._0_
*852 strobe_inbuf_8\._0_
*853 strobe_inbuf_9\._0_
*854 strobe_outbuf_0\._0_
*855 strobe_outbuf_1\._0_
*856 strobe_outbuf_10\._0_
*857 strobe_outbuf_11\._0_
*858 strobe_outbuf_12\._0_
*859 strobe_outbuf_13\._0_
*860 strobe_outbuf_14\._0_
*861 strobe_outbuf_15\._0_
*862 strobe_outbuf_16\._0_
*863 strobe_outbuf_17\._0_
*864 strobe_outbuf_18\._0_
*865 strobe_outbuf_19\._0_
*866 strobe_outbuf_2\._0_
*867 strobe_outbuf_3\._0_
*868 strobe_outbuf_4\._0_
*869 strobe_outbuf_5\._0_
*870 strobe_outbuf_6\._0_
*871 strobe_outbuf_7\._0_
*872 strobe_outbuf_8\._0_
*873 strobe_outbuf_9\._0_

*PORTS
FrameStrobe[0] I
FrameStrobe[10] I
FrameStrobe[11] I
FrameStrobe[12] I
FrameStrobe[13] I
FrameStrobe[14] I
FrameStrobe[15] I
FrameStrobe[16] I
FrameStrobe[17] I
FrameStrobe[18] I
FrameStrobe[19] I
FrameStrobe[1] I
FrameStrobe[2] I
FrameStrobe[3] I
FrameStrobe[4] I
FrameStrobe[5] I
FrameStrobe[6] I
FrameStrobe[7] I
FrameStrobe[8] I
FrameStrobe[9] I
FrameStrobe_O[0] O
FrameStrobe_O[10] O
FrameStrobe_O[11] O
FrameStrobe_O[12] O
FrameStrobe_O[13] O
FrameStrobe_O[14] O
FrameStrobe_O[15] O
FrameStrobe_O[16] O
FrameStrobe_O[17] O
FrameStrobe_O[18] O
FrameStrobe_O[19] O
FrameStrobe_O[1] O
FrameStrobe_O[2] O
FrameStrobe_O[3] O
FrameStrobe_O[4] O
FrameStrobe_O[5] O
FrameStrobe_O[6] O
FrameStrobe_O[7] O
FrameStrobe_O[8] O
FrameStrobe_O[9] O
N1END[0] I
N1END[1] I
N1END[2] I
N1END[3] I
N2END[0] I
N2END[1] I
N2END[2] I
N2END[3] I
N2END[4] I
N2END[5] I
N2END[6] I
N2END[7] I
N2MID[0] I
N2MID[1] I
N2MID[2] I
N2MID[3] I
N2MID[4] I
N2MID[5] I
N2MID[6] I
N2MID[7] I
N4END[0] I
N4END[10] I
N4END[11] I
N4END[12] I
N4END[13] I
N4END[14] I
N4END[15] I
N4END[1] I
N4END[2] I
N4END[3] I
N4END[4] I
N4END[5] I
N4END[6] I
N4END[7] I
N4END[8] I
N4END[9] I
S1BEG[0] O
S1BEG[1] O
S1BEG[2] O
S1BEG[3] O
S2BEG[0] O
S2BEG[1] O
S2BEG[2] O
S2BEG[3] O
S2BEG[4] O
S2BEG[5] O
S2BEG[6] O
S2BEG[7] O
S2BEGb[0] O
S2BEGb[1] O
S2BEGb[2] O
S2BEGb[3] O
S2BEGb[4] O
S2BEGb[5] O
S2BEGb[6] O
S2BEGb[7] O
S4BEG[0] O
S4BEG[10] O
S4BEG[11] O
S4BEG[12] O
S4BEG[13] O
S4BEG[14] O
S4BEG[15] O
S4BEG[1] O
S4BEG[2] O
S4BEG[3] O
S4BEG[4] O
S4BEG[5] O
S4BEG[6] O
S4BEG[7] O
S4BEG[8] O
S4BEG[9] O
UserCLK I
UserCLKo O

*D_NET *1 0.00272016
*CONN
*P FrameStrobe[0] I
*I *719:A I *D sky130_fd_sc_hd__clkbuf_1
*CAP
1 FrameStrobe[0] 0.000710356
2 *719:A 0
3 *1:13 0.000710356
4 *1:13 *780:A 0.000317553
5 *1:13 *12:11 0.000136203
6 *1:13 *102:10 2.62931e-05
7 *1:13 *113:13 0.000310046
8 *1:13 *152:22 0.000484539
9 *1:13 *211:18 2.11066e-05
10 *1:13 *216:22 0
11 *1:13 *295:8 3.7122e-06
*RES
1 FrameStrobe[0] *1:13 31.8614 
2 *1:13 *719:A 23 
*END

*D_NET *2 0.00271447
*CONN
*P FrameStrobe[10] I
*I *730:A I *D sky130_fd_sc_hd__buf_1
*CAP
1 FrameStrobe[10] 0.000843238
2 *730:A 0
3 *2:17 0.000843238
4 *2:17 *731:A 0.000289728
5 *2:17 *3:15 3.88169e-05
6 *2:17 *16:13 3.4932e-05
7 *2:17 *174:8 0.000294834
8 *2:17 *175:12 7.20089e-05
9 *2:17 *223:10 0.000269775
10 *2:17 *276:8 2.79004e-05
11 *2:17 *295:16 0
12 *2:17 *296:12 0
*RES
1 FrameStrobe[10] *2:17 46.6129 
2 *2:17 *730:A 38 
*END

*D_NET *3 0.00283742
*CONN
*P FrameStrobe[11] I
*I *741:A I *D sky130_fd_sc_hd__buf_1
*CAP
1 FrameStrobe[11] 0.000696611
2 *741:A 0
3 *3:15 0.000696611
4 *3:15 *731:A 0
5 *3:15 *860:A 0.000104477
6 *3:15 *861:A 0.00010005
7 *3:15 *4:13 8.46174e-05
8 *3:15 *6:27 0.00026025
9 *3:15 *11:25 0.000191148
10 *3:15 *17:19 0.000244599
11 *3:15 *174:8 6.53418e-05
12 *3:15 *176:10 8.62783e-05
13 *3:15 *223:10 9.41704e-05
14 *3:15 *245:8 3.11878e-05
15 *3:15 *293:12 5.61255e-06
16 *3:15 *294:8 0.000137651
17 *2:17 *3:15 3.88169e-05
*RES
1 FrameStrobe[11] *3:15 31.0329 
2 *3:15 *741:A 23 
*END

*D_NET *4 0.00232018
*CONN
*P FrameStrobe[12] I
*I *752:A I *D sky130_fd_sc_hd__clkbuf_1
*CAP
1 FrameStrobe[12] 0.000538353
2 *752:A 0
3 *4:13 0.000538353
4 *4:13 *5:15 0.000439736
5 *4:13 *10:13 9.67842e-05
6 *4:13 *17:19 0.000100169
7 *4:13 *165:14 2.02872e-05
8 *4:13 *165:18 2.65023e-05
9 *4:13 *245:8 0.000475383
10 *3:15 *4:13 8.46174e-05
*RES
1 FrameStrobe[12] *4:13 30.1421 
2 *4:13 *752:A 23 
*END

*D_NET *5 0.00224359
*CONN
*P FrameStrobe[13] I
*I *763:A I *D sky130_fd_sc_hd__clkbuf_1
*CAP
1 FrameStrobe[13] 0.000473305
2 *763:A 0
3 *5:15 0.000473305
4 *5:15 *6:27 0.000294996
5 *5:15 *10:13 3.3266e-05
6 *5:15 *19:15 0.000237176
7 *5:15 *165:14 0.000100333
8 *5:15 *165:18 3.47781e-05
9 *5:15 *177:10 0.00012758
10 *5:15 *274:8 2.91142e-05
11 *4:13 *5:15 0.000439736
*RES
1 FrameStrobe[13] *5:15 29.2307 
2 *5:15 *763:A 23 
*END

*D_NET *6 0.00352044
*CONN
*P FrameStrobe[14] I
*I *772:A I *D sky130_fd_sc_hd__clkbuf_1
*CAP
1 FrameStrobe[14] 0.000856598
2 *772:A 0
3 *6:27 0.000856598
4 *6:27 *863:A 9.30332e-05
5 *6:27 *7:11 6.28153e-05
6 *6:27 *19:15 0.00038385
7 *6:27 *178:8 0.000255292
8 *6:27 *223:10 0.000351795
9 *6:27 *274:8 1.01436e-05
10 *6:27 *293:12 5.97612e-05
11 *6:27 *296:8 3.53115e-05
12 *3:15 *6:27 0.00026025
13 *5:15 *6:27 0.000294996
*RES
1 FrameStrobe[14] *6:27 36.4186 
2 *6:27 *772:A 23 
*END

*D_NET *7 0.00283584
*CONN
*P FrameStrobe[15] I
*I *773:A I *D sky130_fd_sc_hd__clkbuf_1
*CAP
1 FrameStrobe[15] 0.000530477
2 *773:A 0
3 *7:11 0.000530477
4 *7:11 *8:13 0.00135653
5 *7:11 *9:11 0.00012103
6 *7:11 *178:8 8.93326e-05
7 *7:11 *294:12 0.000145176
8 *6:27 *7:11 6.28153e-05
*RES
1 FrameStrobe[15] *7:11 33.0629 
2 *7:11 *773:A 23 
*END

*D_NET *8 0.00320866
*CONN
*P FrameStrobe[16] I
*I *774:A I *D sky130_fd_sc_hd__clkbuf_1
*CAP
1 FrameStrobe[16] 0.000815443
2 *774:A 0
3 *8:13 0.000815443
4 *8:13 *9:11 6.37204e-05
5 *8:13 *11:13 6.16439e-05
6 *8:13 *234:10 9.58714e-05
7 *7:11 *8:13 0.00135653
*RES
1 FrameStrobe[16] *8:13 36.0664 
2 *8:13 *774:A 23 
*END

*D_NET *9 0.00287706
*CONN
*P FrameStrobe[17] I
*I *775:A I *D sky130_fd_sc_hd__clkbuf_1
*CAP
1 FrameStrobe[17] 0.00116636
2 *775:A 0
3 *9:11 0.00116636
4 *9:11 *10:13 0.000359586
5 *9:11 *154:16 0
6 *9:11 *294:12 0
7 *7:11 *9:11 0.00012103
8 *8:13 *9:11 6.37204e-05
*RES
1 FrameStrobe[17] *9:11 39.4843 
2 *9:11 *775:A 23 
*END

*D_NET *10 0.00289938
*CONN
*P FrameStrobe[18] I
*I *720:A I *D sky130_fd_sc_hd__clkbuf_1
*CAP
1 FrameStrobe[18] 0.000941688
2 *720:A 0
3 *10:13 0.000941688
4 *10:13 *841:A 9.41704e-05
5 *10:13 *11:13 0.000199277
6 *10:13 *165:14 6.38445e-05
7 *10:13 *201:20 0.000102655
8 *10:13 *212:10 6.64204e-05
9 *4:13 *10:13 9.67842e-05
10 *5:15 *10:13 3.3266e-05
11 *9:11 *10:13 0.000359586
*RES
1 FrameStrobe[18] *10:13 38.3657 
2 *10:13 *720:A 23 
*END

*D_NET *11 0.00433033
*CONN
*P FrameStrobe[19] I
*I *721:A I *D sky130_fd_sc_hd__clkbuf_1
*CAP
1 FrameStrobe[19] 0.000552064
2 *721:A 3.69657e-05
3 *11:25 0.000773451
4 *11:13 0.00128855
5 *721:A *165:14 9.5877e-05
6 *721:A *212:10 9.41704e-05
7 *11:13 *190:10 0.000100069
8 *11:25 *180:12 4.35651e-05
9 *11:25 *190:10 0.000558459
10 *11:25 *245:8 0.000330935
11 *11:25 *296:12 4.15283e-06
12 *3:15 *11:25 0.000191148
13 *8:13 *11:13 6.16439e-05
14 *10:13 *11:13 0.000199277
*RES
1 FrameStrobe[19] *11:13 42.6979 
2 *11:13 *11:25 42.3043 
3 *11:25 *721:A 39.0979 
*END

*D_NET *12 0.00244745
*CONN
*P FrameStrobe[1] I
*I *722:A I *D sky130_fd_sc_hd__buf_1
*CAP
1 FrameStrobe[1] 0.00051937
2 *722:A 0
3 *12:11 0.00051937
4 *12:11 *580:A 7.00366e-05
5 *12:11 *588:A 0.000230604
6 *12:11 *725:A 6.6426e-05
7 *12:11 *781:A 0.000185434
8 *12:11 *13:15 9.83554e-05
9 *12:11 *103:8 7.43025e-06
10 *12:11 *144:8 0.000573357
11 *12:11 *203:32 4.08664e-05
12 *1:13 *12:11 0.000136203
*RES
1 FrameStrobe[1] *12:11 29.5 
2 *12:11 *722:A 23 
*END

*D_NET *13 0.00247952
*CONN
*P FrameStrobe[2] I
*I *723:A I *D sky130_fd_sc_hd__buf_1
*CAP
1 FrameStrobe[2] 0.000612312
2 *723:A 0
3 *13:15 0.000612312
4 *13:15 *580:A 4.20216e-05
5 *13:15 *588:A 0.000228909
6 *13:15 *725:A 0.000112463
7 *13:15 *14:17 0.000181507
8 *13:15 *16:13 0
9 *13:15 *103:8 6.17437e-06
10 *13:15 *113:13 0
11 *13:15 *190:10 0.000495151
12 *13:15 *203:32 5.3304e-05
13 *13:15 *216:22 3.70094e-05
14 *12:11 *13:15 9.83554e-05
*RES
1 FrameStrobe[2] *13:15 30.4943 
2 *13:15 *723:A 23 
*END

*D_NET *14 0.00270432
*CONN
*P FrameStrobe[3] I
*I *724:A I *D sky130_fd_sc_hd__buf_1
*CAP
1 FrameStrobe[3] 0.00047671
2 *724:A 0
3 *14:17 0.00047671
4 *14:17 *731:A 4.86228e-05
5 *14:17 *15:13 0.000360164
6 *14:17 *18:19 6.94333e-05
7 *14:17 *172:8 8.85189e-05
8 *14:17 *173:10 0.000137249
9 *14:17 *173:18 0.000213872
10 *14:17 *176:20 0.000651532
11 *14:17 *203:32 0
12 *13:15 *14:17 0.000181507
*RES
1 FrameStrobe[3] *14:17 44.79 
2 *14:17 *724:A 38 
*END

*D_NET *15 0.00262593
*CONN
*P FrameStrobe[4] I
*I *725:A I *D sky130_fd_sc_hd__buf_1
*CAP
1 FrameStrobe[4] 0.000390591
2 *725:A 0.000324433
3 *15:13 0.000715024
4 *725:A *842:A 0
5 *725:A *18:19 5.25848e-05
6 *725:A *173:10 5.3304e-05
7 *725:A *190:10 5.43562e-05
8 *15:13 *16:13 0.000207445
9 *15:13 *18:19 0
10 *15:13 *171:8 2.19714e-05
11 *15:13 *173:18 0.000267173
12 *15:13 *203:32 0
13 *12:11 *725:A 6.6426e-05
14 *13:15 *725:A 0.000112463
15 *14:17 *15:13 0.000360164
*RES
1 FrameStrobe[4] *15:13 39.0314 
2 *15:13 *725:A 44.0486 
*END

*D_NET *16 0.00197071
*CONN
*P FrameStrobe[5] I
*I *726:A I *D sky130_fd_sc_hd__buf_1
*CAP
1 FrameStrobe[5] 0.000616122
2 *726:A 0
3 *16:13 0.000616122
4 *16:13 *731:A 0
5 *16:13 *17:19 0.000180081
6 *16:13 *18:19 0
7 *16:13 *190:16 0
8 *16:13 *203:32 0.000316005
9 *16:13 *216:22 0
10 *16:13 *275:12 0
11 *2:17 *16:13 3.4932e-05
12 *13:15 *16:13 0
13 *15:13 *16:13 0.000207445
*RES
1 FrameStrobe[5] *16:13 27.0971 
2 *16:13 *726:A 23 
*END

*D_NET *17 0.00258259
*CONN
*P FrameStrobe[6] I
*I *727:A I *D sky130_fd_sc_hd__buf_1
*CAP
1 FrameStrobe[6] 0.000474252
2 *727:A 0
3 *17:19 0.000474252
4 *17:19 *18:19 0
5 *17:19 *173:18 0.000362636
6 *17:19 *176:20 1.77246e-05
7 *17:19 *178:16 0.000235114
8 *17:19 *178:20 0.000456743
9 *17:19 *245:8 3.70187e-05
10 *3:15 *17:19 0.000244599
11 *4:13 *17:19 0.000100169
12 *16:13 *17:19 0.000180081
*RES
1 FrameStrobe[6] *17:19 44.935 
2 *17:19 *727:A 38 
*END

*D_NET *18 0.00244011
*CONN
*P FrameStrobe[7] I
*I *728:A I *D sky130_fd_sc_hd__buf_1
*CAP
1 FrameStrobe[7] 0.000798224
2 *728:A 0
3 *18:19 0.000798224
4 *18:19 *731:A 2.24608e-05
5 *18:19 *842:A 5.89188e-05
6 *18:19 *19:15 4.00514e-05
7 *18:19 *171:8 4.08641e-05
8 *18:19 *172:8 8.85189e-05
9 *18:19 *176:10 3.40381e-05
10 *18:19 *190:10 0.00043679
11 *725:A *18:19 5.25848e-05
12 *14:17 *18:19 6.94333e-05
13 *15:13 *18:19 0
14 *16:13 *18:19 0
15 *17:19 *18:19 0
*RES
1 FrameStrobe[7] *18:19 31.1364 
2 *18:19 *728:A 23 
*END

*D_NET *19 0.0022377
*CONN
*P FrameStrobe[8] I
*I *729:A I *D sky130_fd_sc_hd__buf_1
*CAP
1 FrameStrobe[8] 0.000506194
2 *729:A 0
3 *19:15 0.000506194
4 *19:15 *731:A 0.000100776
5 *19:15 *174:14 0.000181125
6 *19:15 *177:10 0.00012758
7 *19:15 *178:16 0.000154759
8 *5:15 *19:15 0.000237176
9 *6:27 *19:15 0.00038385
10 *18:19 *19:15 4.00514e-05
*RES
1 FrameStrobe[8] *19:15 44.645 
2 *19:15 *729:A 38 
*END

*D_NET *20 0.00175803
*CONN
*P FrameStrobe[9] I
*I *731:A I *D sky130_fd_sc_hd__buf_1
*CAP
1 FrameStrobe[9] 0.000580718
2 *731:A 0.000580718
3 *731:A *173:10 0.000135008
4 *731:A *256:14 0
5 *2:17 *731:A 0.000289728
6 *3:15 *731:A 0
7 *14:17 *731:A 4.86228e-05
8 *16:13 *731:A 0
9 *18:19 *731:A 2.24608e-05
10 *19:15 *731:A 0.000100776
*RES
1 FrameStrobe[9] *731:A 48.8543 
*END

*D_NET *21 0.00114215
*CONN
*P FrameStrobe_O[0] O
*I *792:X O *D sky130_fd_sc_hd__buf_2
*CAP
1 FrameStrobe_O[0] 0.000506299
2 *792:X 0.000506299
3 FrameStrobe_O[0] UserCLKo 0
4 FrameStrobe_O[0] *791:A 2.93747e-05
5 FrameStrobe_O[0] *221:16 0.00010018
*RES
1 *792:X FrameStrobe_O[0] 48.0464 
*END

*D_NET *22 0.000837047
*CONN
*P FrameStrobe_O[10] O
*I *793:X O *D sky130_fd_sc_hd__clkbuf_4
*CAP
1 FrameStrobe_O[10] 0.000418523
2 *793:X 0.000418523
*RES
1 *793:X FrameStrobe_O[10] 47.0936 
*END

*D_NET *23 0.000795308
*CONN
*P FrameStrobe_O[11] O
*I *794:X O *D sky130_fd_sc_hd__clkbuf_4
*CAP
1 FrameStrobe_O[11] 0.000397654
2 *794:X 0.000397654
*RES
1 *794:X FrameStrobe_O[11] 46.6171 
*END

*D_NET *24 0.000920525
*CONN
*P FrameStrobe_O[12] O
*I *795:X O *D sky130_fd_sc_hd__clkbuf_4
*CAP
1 FrameStrobe_O[12] 0.000460262
2 *795:X 0.000460262
3 FrameStrobe_O[12] FrameStrobe_O[13] 0
*RES
1 *795:X FrameStrobe_O[12] 48.0464 
*END

*D_NET *25 0.000795308
*CONN
*P FrameStrobe_O[13] O
*I *796:X O *D sky130_fd_sc_hd__clkbuf_4
*CAP
1 FrameStrobe_O[13] 0.000397654
2 *796:X 0.000397654
3 FrameStrobe_O[12] FrameStrobe_O[13] 0
*RES
1 *796:X FrameStrobe_O[13] 46.6171 
*END

*D_NET *26 0.001004
*CONN
*P FrameStrobe_O[14] O
*I *797:X O *D sky130_fd_sc_hd__clkbuf_4
*CAP
1 FrameStrobe_O[14] 0.000502001
2 *797:X 0.000502001
3 FrameStrobe_O[14] FrameStrobe_O[15] 0
*RES
1 *797:X FrameStrobe_O[14] 48.9993 
*END

*D_NET *27 0.000878786
*CONN
*P FrameStrobe_O[15] O
*I *798:X O *D sky130_fd_sc_hd__buf_2
*CAP
1 FrameStrobe_O[15] 0.000439393
2 *798:X 0.000439393
3 FrameStrobe_O[14] FrameStrobe_O[15] 0
*RES
1 *798:X FrameStrobe_O[15] 47.57 
*END

*D_NET *28 0.000878786
*CONN
*P FrameStrobe_O[16] O
*I *799:X O *D sky130_fd_sc_hd__buf_2
*CAP
1 FrameStrobe_O[16] 0.000439393
2 *799:X 0.000439393
*RES
1 *799:X FrameStrobe_O[16] 47.57 
*END

*D_NET *29 0.000997106
*CONN
*P FrameStrobe_O[17] O
*I *800:X O *D sky130_fd_sc_hd__clkbuf_4
*CAP
1 FrameStrobe_O[17] 0.000498553
2 *800:X 0.000498553
3 FrameStrobe_O[17] *295:16 0
4 FrameStrobe_O[17] *296:12 0
*RES
1 *800:X FrameStrobe_O[17] 48.3779 
*END

*D_NET *30 0.0010613
*CONN
*P FrameStrobe_O[18] O
*I *801:X O *D sky130_fd_sc_hd__clkbuf_4
*CAP
1 FrameStrobe_O[18] 0.000473915
2 *801:X 0.000473915
3 FrameStrobe_O[18] FrameStrobe_O[19] 0
4 FrameStrobe_O[18] *714:A 1.32939e-05
5 FrameStrobe_O[18] *801:A 0.00010018
*RES
1 *801:X FrameStrobe_O[18] 47.57 
*END

*D_NET *31 0.00158101
*CONN
*P FrameStrobe_O[19] O
*I *802:X O *D sky130_fd_sc_hd__clkbuf_4
*CAP
1 FrameStrobe_O[19] 0.000605014
2 *802:X 0.000168904
3 *31:8 0.000773919
4 FrameStrobe_O[19] *294:12 3.31683e-05
5 FrameStrobe_O[19] *297:12 0
6 FrameStrobe_O[18] FrameStrobe_O[19] 0
*RES
1 *802:X *31:8 40.0507 
2 *31:8 FrameStrobe_O[19] 12.8636 
*END

*D_NET *32 0.00141554
*CONN
*P FrameStrobe_O[1] O
*I *803:X O *D sky130_fd_sc_hd__clkbuf_4
*CAP
1 FrameStrobe_O[1] 0.000107523
2 *803:X 0.000504935
3 *32:10 0.000612458
4 *32:10 FrameStrobe_O[2] 0
5 *32:10 *221:16 0.00019063