*SPEF "ieee 1481-1999"
*DESIGN "N_term_single"
*DATE "11:11:11 Fri 11 11, 1111"
*VENDOR "OpenRCX"
*PROGRAM "Parallel Extraction"
*VERSION "1.0"
*DESIGN_FLOW "NAME_SCOPE LOCAL" "PIN_CAP NONE"
*DIVIDER /
*DELIMITER :
*BUS_DELIMITER []
*T_UNIT 1 NS
*C_UNIT 1 PF
*R_UNIT 1 OHM
*L_UNIT 1 HENRY

*NAME_MAP
*1 Ci
*2 FrameStrobe[0]
*3 FrameStrobe[10]
*4 FrameStrobe[11]
*5 FrameStrobe[12]
*6 FrameStrobe[13]
*7 FrameStrobe[14]
*8 FrameStrobe[15]
*9 FrameStrobe[16]
*10 FrameStrobe[17]
*11 FrameStrobe[18]
*12 FrameStrobe[19]
*13 FrameStrobe[1]
*14 FrameStrobe[2]
*15 FrameStrobe[3]
*16 FrameStrobe[4]
*17 FrameStrobe[5]
*18 FrameStrobe[6]
*19 FrameStrobe[7]
*20 FrameStrobe[8]
*21 FrameStrobe[9]
*22 FrameStrobe_O[0]
*23 FrameStrobe_O[10]
*24 FrameStrobe_O[11]
*25 FrameStrobe_O[12]
*26 FrameStrobe_O[13]
*27 FrameStrobe_O[14]
*28 FrameStrobe_O[15]
*29 FrameStrobe_O[16]
*30 FrameStrobe_O[17]
*31 FrameStrobe_O[18]
*32 FrameStrobe_O[19]
*33 FrameStrobe_O[1]
*34 FrameStrobe_O[2]
*35 FrameStrobe_O[3]
*36 FrameStrobe_O[4]
*37 FrameStrobe_O[5]
*38 FrameStrobe_O[6]
*39 FrameStrobe_O[7]
*40 FrameStrobe_O[8]
*41 FrameStrobe_O[9]
*42 N1END[0]
*43 N1END[1]
*44 N1END[2]
*45 N1END[3]
*46 N2END[0]
*47 N2END[1]
*48 N2END[2]
*49 N2END[3]
*50 N2END[4]
*51 N2END[5]
*52 N2END[6]
*53 N2END[7]
*54 N2MID[0]
*55 N2MID[1]
*56 N2MID[2]
*57 N2MID[3]
*58 N2MID[4]
*59 N2MID[5]
*60 N2MID[6]
*61 N2MID[7]
*62 N4END[0]
*63 N4END[10]
*64 N4END[11]
*65 N4END[12]
*66 N4END[13]
*67 N4END[14]
*68 N4END[15]
*69 N4END[1]
*70 N4END[2]
*71 N4END[3]
*72 N4END[4]
*73 N4END[5]
*74 N4END[6]
*75 N4END[7]
*76 N4END[8]
*77 N4END[9]
*78 NN4END[0]
*79 NN4END[10]
*80 NN4END[11]
*81 NN4END[12]
*82 NN4END[13]
*83 NN4END[14]
*84 NN4END[15]
*85 NN4END[1]
*86 NN4END[2]
*87 NN4END[3]
*88 NN4END[4]
*89 NN4END[5]
*90 NN4END[6]
*91 NN4END[7]
*92 NN4END[8]
*93 NN4END[9]
*94 S1BEG[0]
*95 S1BEG[1]
*96 S1BEG[2]
*97 S1BEG[3]
*98 S2BEG[0]
*99 S2BEG[1]
*100 S2BEG[2]
*101 S2BEG[3]
*102 S2BEG[4]
*103 S2BEG[5]
*104 S2BEG[6]
*105 S2BEG[7]
*106 S2BEGb[0]
*107 S2BEGb[1]
*108 S2BEGb[2]
*109 S2BEGb[3]
*110 S2BEGb[4]
*111 S2BEGb[5]
*112 S2BEGb[6]
*113 S2BEGb[7]
*114 S4BEG[0]
*115 S4BEG[10]
*116 S4BEG[11]
*117 S4BEG[12]
*118 S4BEG[13]
*119 S4BEG[14]
*120 S4BEG[15]
*121 S4BEG[1]
*122 S4BEG[2]
*123 S4BEG[3]
*124 S4BEG[4]
*125 S4BEG[5]
*126 S4BEG[6]
*127 S4BEG[7]
*128 S4BEG[8]
*129 S4BEG[9]
*130 SS4BEG[0]
*131 SS4BEG[10]
*132 SS4BEG[11]
*133 SS4BEG[12]
*134 SS4BEG[13]
*135 SS4BEG[14]
*136 SS4BEG[15]
*137 SS4BEG[1]
*138 SS4BEG[2]
*139 SS4BEG[3]
*140 SS4BEG[4]
*141 SS4BEG[5]
*142 SS4BEG[6]
*143 SS4BEG[7]
*144 SS4BEG[8]
*145 SS4BEG[9]
*146 UserCLK
*147 UserCLKo
*150 net1
*151 net10
*152 net100
*153 net101
*154 net102
*155 net103
*156 net104
*157 net105
*158 net106
*159 net107
*160 net108
*161 net109
*162 net11
*163 net110
*164 net111
*165 net112
*166 net113
*167 net114
*168 net115
*169 net116
*170 net117
*171 net118
*172 net119
*173 net12
*174 net120
*175 net121
*176 net122
*177 net123
*178 net124
*179 net125
*180 net126
*181 net127
*182 net128
*183 net129
*184 net13
*185 net130
*186 net131
*187 net132
*188 net133
*189 net134
*190 net135
*191 net136
*192 net137
*193 net138
*194 net139
*195 net14
*196 net140
*197 net141
*198 net142
*199 net143
*200 net144
*201 net145
*202 net146
*203 net15
*204 net16
*205 net17
*206 net18
*207 net19
*208 net2
*209 net20
*210 net21
*211 net22
*212 net23
*213 net24
*214 net25
*215 net26
*216 net27
*217 net28
*218 net29
*219 net3
*220 net30
*221 net31
*222 net32
*223 net33
*224 net34
*225 net35
*226 net36
*227 net37
*228 net38
*229 net39
*230 net4
*231 net40
*232 net41
*233 net42
*234 net43
*235 net44
*236 net45
*237 net46
*238 net47
*239 net48
*240 net49
*241 net5
*242 net50
*243 net51
*244 net52
*245 net53
*246 net54
*247 net55
*248 net56
*249 net57
*250 net58
*251 net59
*252 net6
*253 net60
*254 net61
*255 net62
*256 net63
*257 net64
*258 net65
*259 net66
*260 net67
*261 net68
*262 net69
*263 net7
*264 net70
*265 net71
*266 net72
*267 net73
*268 net74
*269 net75
*270 net76
*271 net77
*272 net78
*273 net79
*274 net8
*275 net80
*276 net81
*277 net82
*278 net83
*279 net84
*280 net85
*281 net86
*282 net87
*283 net88
*284 net89
*285 net9
*286 net90
*287 net91
*288 net92
*289 net93
*290 net94
*291 net95
*292 net96
*293 net97
*294 net98
*295 net99
*296 ANTENNA_1
*297 ANTENNA_2
*298 ANTENNA_3
*299 ANTENNA_4
*300 FILLER_0_0_144
*301 FILLER_0_0_148
*302 FILLER_0_0_15
*303 FILLER_0_0_27
*304 FILLER_0_0_29
*305 FILLER_0_0_3
*306 FILLER_0_0_37
*307 FILLER_0_0_391
*308 FILLER_0_0_439
*309 FILLER_0_0_447
*310 FILLER_0_0_449
*311 FILLER_0_0_456
*312 FILLER_0_1_102
*313 FILLER_0_1_110
*314 FILLER_0_1_113
*315 FILLER_0_1_125
*316 FILLER_0_1_140
*317 FILLER_0_1_15
*318 FILLER_0_1_169
*319 FILLER_0_1_27
*320 FILLER_0_1_279
*321 FILLER_0_1_3
*322 FILLER_0_1_335
*323 FILLER_0_1_337
*324 FILLER_0_1_341
*325 FILLER_0_1_384
*326 FILLER_0_1_39
*327 FILLER_0_1_393
*328 FILLER_0_1_405
*329 FILLER_0_1_417
*330 FILLER_0_1_429
*331 FILLER_0_1_441
*332 FILLER_0_1_447
*333 FILLER_0_1_449
*334 FILLER_0_1_461
*335 FILLER_0_1_51
*336 FILLER_0_1_55
*337 FILLER_0_1_57
*338 FILLER_0_1_69
*339 FILLER_0_1_81
*340 FILLER_0_1_90
*341 FILLER_0_2_109
*342 FILLER_0_2_121
*343 FILLER_0_2_133
*344 FILLER_0_2_139
*345 FILLER_0_2_141
*346 FILLER_0_2_15
*347 FILLER_0_2_153
*348 FILLER_0_2_165
*349 FILLER_0_2_174
*350 FILLER_0_2_180
*351 FILLER_0_2_188
*352 FILLER_0_2_195
*353 FILLER_0_2_197
*354 FILLER_0_2_201
*355 FILLER_0_2_208
*356 FILLER_0_2_230
*357 FILLER_0_2_235
*358 FILLER_0_2_244
*359 FILLER_0_2_259
*360 FILLER_0_2_27
*361 FILLER_0_2_283
*362 FILLER_0_2_287
*363 FILLER_0_2_29
*364 FILLER_0_2_3
*365 FILLER_0_2_302
*366 FILLER_0_2_309
*367 FILLER_0_2_321
*368 FILLER_0_2_333
*369 FILLER_0_2_355
*370 FILLER_0_2_363
*371 FILLER_0_2_365
*372 FILLER_0_2_377
*373 FILLER_0_2_389
*374 FILLER_0_2_401
*375 FILLER_0_2_41
*376 FILLER_0_2_413
*377 FILLER_0_2_419
*378 FILLER_0_2_421
*379 FILLER_0_2_433
*380 FILLER_0_2_445
*381 FILLER_0_2_457
*382 FILLER_0_2_461
*383 FILLER_0_2_53
*384 FILLER_0_2_65
*385 FILLER_0_2_77
*386 FILLER_0_2_83
*387 FILLER_0_2_85
*388 FILLER_0_2_97
*389 FILLER_0_3_105
*390 FILLER_0_3_111
*391 FILLER_0_3_113
*392 FILLER_0_3_125
*393 FILLER_0_3_137
*394 FILLER_0_3_149
*395 FILLER_0_3_15
*396 FILLER_0_3_161
*397 FILLER_0_3_167
*398 FILLER_0_3_169
*399 FILLER_0_3_181
*400 FILLER_0_3_193
*401 FILLER_0_3_205
*402 FILLER_0_3_217
*403 FILLER_0_3_223
*404 FILLER_0_3_225
*405 FILLER_0_3_237
*406 FILLER_0_3_249
*407 FILLER_0_3_261
*408 FILLER_0_3_27
*409 FILLER_0_3_273
*410 FILLER_0_3_279
*411 FILLER_0_3_281
*412 FILLER_0_3_293
*413 FILLER_0_3_3
*414 FILLER_0_3_305
*415 FILLER_0_3_317
*416 FILLER_0_3_329
*417 FILLER_0_3_335
*418 FILLER_0_3_337
*419 FILLER_0_3_349
*420 FILLER_0_3_361
*421 FILLER_0_3_373
*422 FILLER_0_3_385
*423 FILLER_0_3_39
*424 FILLER_0_3_391
*425 FILLER_0_3_393
*426 FILLER_0_3_405
*427 FILLER_0_3_417
*428 FILLER_0_3_429
*429 FILLER_0_3_441
*430 FILLER_0_3_447
*431 FILLER_0_3_449
*432 FILLER_0_3_461
*433 FILLER_0_3_51
*434 FILLER_0_3_55
*435 FILLER_0_3_57
*436 FILLER_0_3_69
*437 FILLER_0_3_81
*438 FILLER_0_3_93
*439 FILLER_0_4_109
*440 FILLER_0_4_121
*441 FILLER_0_4_133
*442 FILLER_0_4_139
*443 FILLER_0_4_141
*444 FILLER_0_4_15
*445 FILLER_0_4_153
*446 FILLER_0_4_165
*447 FILLER_0_4_177
*448 FILLER_0_4_189
*449 FILLER_0_4_195
*450 FILLER_0_4_197
*451 FILLER_0_4_209
*452 FILLER_0_4_221
*453 FILLER_0_4_233
*454 FILLER_0_4_245
*455 FILLER_0_4_251
*456 FILLER_0_4_253
*457 FILLER_0_4_265
*458 FILLER_0_4_27
*459 FILLER_0_4_277
*460 FILLER_0_4_289
*461 FILLER_0_4_29
*462 FILLER_0_4_3
*463 FILLER_0_4_301
*464 FILLER_0_4_307
*465 FILLER_0_4_309
*466 FILLER_0_4_321
*467 FILLER_0_4_333
*468 FILLER_0_4_345
*469 FILLER_0_4_357
*470 FILLER_0_4_363
*471 FILLER_0_4_365
*472 FILLER_0_4_377
*473 FILLER_0_4_389
*474 FILLER_0_4_401
*475 FILLER_0_4_41
*476 FILLER_0_4_413
*477 FILLER_0_4_419
*478 FILLER_0_4_421
*479 FILLER_0_4_433
*480 FILLER_0_4_445
*481 FILLER_0_4_457
*482 FILLER_0_4_461
*483 FILLER_0_4_53
*484 FILLER_0_4_65
*485 FILLER_0_4_77
*486 FILLER_0_4_83
*487 FILLER_0_4_85
*488 FILLER_0_4_97
*489 FILLER_0_5_105
*490 FILLER_0_5_111
*491 FILLER_0_5_113
*492 FILLER_0_5_125
*493 FILLER_0_5_137
*494 FILLER_0_5_149
*495 FILLER_0_5_15
*496 FILLER_0_5_161
*497 FILLER_0_5_167
*498 FILLER_0_5_169
*499 FILLER_0_5_181
*500 FILLER_0_5_193
*501 FILLER_0_5_205
*502 FILLER_0_5_217
*503 FILLER_0_5_223
*504 FILLER_0_5_225
*505 FILLER_0_5_237
*506 FILLER_0_5_249
*507 FILLER_0_5_261
*508 FILLER_0_5_27
*509 FILLER_0_5_273
*510 FILLER_0_5_279
*511 FILLER_0_5_281
*512 FILLER_0_5_293
*513 FILLER_0_5_3
*514 FILLER_0_5_305
*515 FILLER_0_5_317
*516 FILLER_0_5_329
*517 FILLER_0_5_335
*518 FILLER_0_5_337
*519 FILLER_0_5_349
*520 FILLER_0_5_361
*521 FILLER_0_5_373
*522 FILLER_0_5_385
*523 FILLER_0_5_39
*524 FILLER_0_5_391
*525 FILLER_0_5_393
*526 FILLER_0_5_405
*527 FILLER_0_5_417
*528 FILLER_0_5_429
*529 FILLER_0_5_441
*530 FILLER_0_5_447
*531 FILLER_0_5_449
*532 FILLER_0_5_461
*533 FILLER_0_5_51
*534 FILLER_0_5_55
*535 FILLER_0_5_57
*536 FILLER_0_5_69
*537 FILLER_0_5_81
*538 FILLER_0_5_93
*539 FILLER_0_6_109
*540 FILLER_0_6_121
*541 FILLER_0_6_133
*542 FILLER_0_6_139
*543 FILLER_0_6_141
*544 FILLER_0_6_15
*545 FILLER_0_6_153
*546 FILLER_0_6_161
*547 FILLER_0_6_164
*548 FILLER_0_6_169
*549 FILLER_0_6_181
*550 FILLER_0_6_193
*551 FILLER_0_6_197
*552 FILLER_0_6_209
*553 FILLER_0_6_221
*554 FILLER_0_6_233
*555 FILLER_0_6_245
*556 FILLER_0_6_251
*557 FILLER_0_6_253
*558 FILLER_0_6_257
*559 FILLER_0_6_261
*560 FILLER_0_6_27
*561 FILLER_0_6_273
*562 FILLER_0_6_285
*563 FILLER_0_6_29
*564 FILLER_0_6_297
*565 FILLER_0_6_3
*566 FILLER_0_6_305
*567 FILLER_0_6_309
*568 FILLER_0_6_321
*569 FILLER_0_6_333
*570 FILLER_0_6_345
*571 FILLER_0_6_357
*572 FILLER_0_6_363
*573 FILLER_0_6_365
*574 FILLER_0_6_377
*575 FILLER_0_6_389
*576 FILLER_0_6_401
*577 FILLER_0_6_41
*578 FILLER_0_6_413
*579 FILLER_0_6_419
*580 FILLER_0_6_421
*581 FILLER_0_6_433
*582 FILLER_0_6_445
*583 FILLER_0_6_457
*584 FILLER_0_6_461
*585 FILLER_0_6_53
*586 FILLER_0_6_65
*587 FILLER_0_6_77
*588 FILLER_0_6_83
*589 FILLER_0_6_85
*590 FILLER_0_6_97
*591 FILLER_0_7_105
*592 FILLER_0_7_111
*593 FILLER_0_7_113
*594 FILLER_0_7_125
*595 FILLER_0_7_137
*596 FILLER_0_7_149
*597 FILLER_0_7_15
*598 FILLER_0_7_161
*599 FILLER_0_7_167
*600 FILLER_0_7_169
*601 FILLER_0_7_181
*602 FILLER_0_7_193
*603 FILLER_0_7_205
*604 FILLER_0_7_217
*605 FILLER_0_7_223
*606 FILLER_0_7_225
*607 FILLER_0_7_237
*608 FILLER_0_7_249
*609 FILLER_0_7_261
*610 FILLER_0_7_27
*611 FILLER_0_7_273
*612 FILLER_0_7_279
*613 FILLER_0_7_281
*614 FILLER_0_7_293
*615 FILLER_0_7_3
*616 FILLER_0_7_305
*617 FILLER_0_7_317
*618 FILLER_0_7_329
*619 FILLER_0_7_335
*620 FILLER_0_7_337
*621 FILLER_0_7_349
*622 FILLER_0_7_361
*623 FILLER_0_7_373
*624 FILLER_0_7_385
*625 FILLER_0_7_39
*626 FILLER_0_7_391
*627 FILLER_0_7_393
*628 FILLER_0_7_405
*629 FILLER_0_7_417
*630 FILLER_0_7_429
*631 FILLER_0_7_441
*632 FILLER_0_7_447
*633 FILLER_0_7_449
*634 FILLER_0_7_461
*635 FILLER_0_7_51
*636 FILLER_0_7_55
*637 FILLER_0_7_57
*638 FILLER_0_7_69
*639 FILLER_0_7_81
*640 FILLER_0_7_93
*641 FILLER_0_8_109
*642 FILLER_0_8_121
*643 FILLER_0_8_133
*644 FILLER_0_8_139
*645 FILLER_0_8_141
*646 FILLER_0_8_15
*647 FILLER_0_8_153
*648 FILLER_0_8_165
*649 FILLER_0_8_177
*650 FILLER_0_8_189
*651 FILLER_0_8_195
*652 FILLER_0_8_197
*653 FILLER_0_8_209
*654 FILLER_0_8_221
*655 FILLER_0_8_233
*656 FILLER_0_8_239
*657 FILLER_0_8_251
*658 FILLER_0_8_253
*659 FILLER_0_8_265
*660 FILLER_0_8_27
*661 FILLER_0_8_277
*662 FILLER_0_8_289
*663 FILLER_0_8_29
*664 FILLER_0_8_3
*665 FILLER_0_8_301
*666 FILLER_0_8_307
*667 FILLER_0_8_309
*668 FILLER_0_8_321
*669 FILLER_0_8_333
*670 FILLER_0_8_345
*671 FILLER_0_8_357
*672 FILLER_0_8_363
*673 FILLER_0_8_365
*674 FILLER_0_8_377
*675 FILLER_0_8_389
*676 FILLER_0_8_401
*677 FILLER_0_8_41
*678 FILLER_0_8_413
*679 FILLER_0_8_419
*680 FILLER_0_8_421
*681 FILLER_0_8_433
*682 FILLER_0_8_445
*683 FILLER_0_8_457
*684 FILLER_0_8_461
*685 FILLER_0_8_53
*686 FILLER_0_8_65
*687 FILLER_0_8_77
*688 FILLER_0_8_83
*689 FILLER_0_8_85
*690 FILLER_0_8_97
*691 FILLER_0_9_101
*692 FILLER_0_9_109
*693 FILLER_0_9_113
*694 FILLER_0_9_117
*695 FILLER_0_9_124
*696 FILLER_0_9_136
*697 FILLER_0_9_147
*698 FILLER_0_9_159
*699 FILLER_0_9_167
*700 FILLER_0_9_175
*701 FILLER_0_9_197
*702 FILLER_0_9_209
*703 FILLER_0_9_21
*704 FILLER_0_9_219
*705 FILLER_0_9_223
*706 FILLER_0_9_225
*707 FILLER_0_9_233
*708 FILLER_0_9_237
*709 FILLER_0_9_248
*710 FILLER_0_9_253
*711 FILLER_0_9_262
*712 FILLER_0_9_27
*713 FILLER_0_9_274
*714 FILLER_0_9_290
*715 FILLER_0_9_309
*716 FILLER_0_9_321
*717 FILLER_0_9_331
*718 FILLER_0_9_335
*719 FILLER_0_9_337
*720 FILLER_0_9_345
*721 FILLER_0_9_35
*722 FILLER_0_9_354
*723 FILLER_0_9_362
*724 FILLER_0_9_365
*725 FILLER_0_9_377
*726 FILLER_0_9_389
*727 FILLER_0_9_393
*728 FILLER_0_9_403
*729 FILLER_0_9_415
*730 FILLER_0_9_419
*731 FILLER_0_9_427
*732 FILLER_0_9_439
*733 FILLER_0_9_446
*734 FILLER_0_9_449
*735 FILLER_0_9_455
*736 FILLER_0_9_47
*737 FILLER_0_9_55
*738 FILLER_0_9_57
*739 FILLER_0_9_69
*740 FILLER_0_9_78
*741 FILLER_0_9_85
*742 FILLER_0_9_9
*743 FILLER_0_9_93
*744 PHY_0
*745 PHY_1
*746 PHY_10
*747 PHY_11
*748 PHY_12
*749 PHY_13
*750 PHY_14
*751 PHY_15
*752 PHY_16
*753 PHY_17
*754 PHY_18
*755 PHY_19
*756 PHY_2
*757 PHY_3
*758 PHY_4
*759 PHY_5
*760 PHY_6
*761 PHY_7
*762 PHY_8
*763 PHY_9
*764 TAP_100
*765 TAP_101
*766 TAP_102
*767 TAP_103
*768 TAP_104
*769 TAP_105
*770 TAP_106
*771 TAP_107
*772 TAP_108
*773 TAP_109
*774 TAP_110
*775 TAP_111
*776 TAP_112
*777 TAP_113
*778 TAP_114
*779 TAP_115
*780 TAP_20
*781 TAP_21
*782 TAP_22
*783 TAP_23
*784 TAP_24
*785 TAP_25
*786 TAP_26
*787 TAP_27
*788 TAP_28
*789 TAP_29
*790 TAP_30
*791 TAP_31
*792 TAP_32
*793 TAP_33
*794 TAP_34
*795 TAP_35
*796 TAP_36
*797 TAP_37
*798 TAP_38
*799 TAP_39
*800 TAP_40
*801 TAP_41
*802 TAP_42
*803 TAP_43
*804 TAP_44
*805 TAP_45
*806 TAP_46
*807 TAP_47
*808 TAP_48
*809 TAP_49
*810 TAP_50
*811 TAP_51
*812 TAP_52
*813 TAP_53
*814 TAP_54
*815 TAP_55
*816 TAP_56
*817 TAP_57
*818 TAP_58
*819 TAP_59
*820 TAP_60
*821 TAP_61
*822 TAP_62
*823 TAP_63
*824 TAP_64
*825 TAP_65
*826 TAP_66
*827 TAP_67
*828 TAP_68
*829 TAP_69
*830 TAP_70
*831 TAP_71
*832 TAP_72
*833 TAP_73
*834 TAP_74
*835 TAP_75
*836 TAP_76
*837 TAP_77
*838 TAP_78
*839 TAP_79
*840 TAP_80
*841 TAP_81
*842 TAP_82
*843 TAP_83
*844 TAP_84
*845 TAP_85
*846 TAP_86
*847 TAP_87
*848 TAP_88
*849 TAP_89
*850 TAP_90
*851 TAP_91
*852 TAP_92
*853 TAP_93
*854 TAP_94
*855 TAP_95
*856 TAP_96
*857 TAP_97
*858 TAP_98
*859 TAP_99
*860 _00_
*861 _01_
*862 _02_
*863 _03_
*864 _04_
*865 _05_
*866 _06_
*867 _07_
*868 _08_
*869 _09_
*870 _10_
*871 _11_
*872 _12_
*873 _13_
*874 _14_
*875 _15_
*876 _16_
*877 _17_
*878 _18_
*879 _19_
*880 _20_
*881 _21_
*882 _22_
*883 _23_
*884 _24_
*885 _25_
*886 _26_
*887 _27_
*888 _28_
*889 _29_
*890 _30_
*891 _31_
*892 _32_
*893 _33_
*894 _34_
*895 _35_
*896 _36_
*897 _37_
*898 _38_
*899 _39_
*900 _40_
*901 _41_
*902 _42_
*903 _43_
*904 _44_
*905 _45_
*906 _46_
*907 _47_
*908 _48_
*909 _49_
*910 _50_
*911 _51_
*912 _52_
*913 _53_
*914 _54_
*915 _55_
*916 _56_
*917 _57_
*918 _58_
*919 _59_
*920 _60_
*921 _61_
*922 _62_
*923 _63_
*924 _64_
*925 _65_
*926 _66_
*927 _67_
*928 _68_
*929 _69_
*930 _70_
*931 _71_
*932 _72_
*933 input1
*934 input10
*935 input11
*936 input12
*937 input13
*938 input14
*939 input15
*940 input16
*941 input17
*942 input18
*943 input19
*944 input2
*945 input20
*946 input21
*947 input22
*948 input23
*949 input24
*950 input25
*951 input26
*952 input27
*953 input28
*954 input29
*955 input3
*956 input30
*957 input31
*958 input32
*959 input33
*960 input34
*961 input35
*962 input36
*963 input37
*964 input38
*965 input39
*966 input4
*967 input40
*968 input41
*969 input42
*970 input43
*971 input44
*972 input45
*973 input46
*974 input47
*975 input48
*976 input49
*977 input5
*978 input50
*979 input51
*980 input52
*981 input53
*982 input54
*983 input55
*984 input56
*985 input57
*986 input58
*987 input59
*988 input6
*989 input60
*990 input61
*991 input62
*992 input63
*993 input64
*994 input65
*995 input66
*996 input67
*997 input68
*998 input69
*999 input7
*1000 input70
*1001 input71
*1002 input72
*1003 input73
*1004 input8
*1005 input9
*1006 output100
*1007 output101
*1008 output102
*1009 output103
*1010 output104
*1011 output105
*1012 output106
*1013 output107
*1014 output108
*1015 output109
*1016 output110
*1017 output111
*1018 output112
*1019 output113
*1020 output114
*1021 output115
*1022 output116
*1023 output117
*1024 output118
*1025 output119
*1026 output120
*1027 output121
*1028 output122
*1029 output123
*1030 output124
*1031 output125
*1032 output126
*1033 output127
*1034 output128
*1035 output129
*1036 output130
*1037 output131
*1038 output132
*1039 output133
*1040 output134
*1041 output135
*1042 output136
*1043 output137
*1044 output138
*1045 output139
*1046 output140
*1047 output141
*1048 output142
*1049 output143
*1050 output144
*1051 output145
*1052 output146
*1053 output74
*1054 output75
*1055 output76
*1056 output77
*1057 output78
*1058 output79
*1059 output80
*1060 output81
*1061 output82
*1062 output83
*1063 output84
*1064 output85
*1065 output86
*1066 output87
*1067 output88
*1068 output89
*1069 output90
*1070 output91
*1071 output92
*1072 output93
*1073 output94
*1074 output95
*1075 output96
*1076 output97
*1077 output98
*1078 output99

*PORTS
Ci I
FrameStrobe[0] I
FrameStrobe[10] I
FrameStrobe[11] I
FrameStrobe[12] I
FrameStrobe[13] I
FrameStrobe[14] I
FrameStrobe[15] I
FrameStrobe[16] I
FrameStrobe[17] I
FrameStrobe[18] I
FrameStrobe[19] I
FrameStrobe[1] I
FrameStrobe[2] I
FrameStrobe[3] I
FrameStrobe[4] I
FrameStrobe[5] I
FrameStrobe[6] I
FrameStrobe[7] I
FrameStrobe[8] I
FrameStrobe[9] I
FrameStrobe_O[0] O
FrameStrobe_O[10] O
FrameStrobe_O[11] O
FrameStrobe_O[12] O
FrameStrobe_O[13] O
FrameStrobe_O[14] O
FrameStrobe_O[15] O
FrameStrobe_O[16] O
FrameStrobe_O[17] O
FrameStrobe_O[18] O
FrameStrobe_O[19] O
FrameStrobe_O[1] O
FrameStrobe_O[2] O
FrameStrobe_O[3] O
FrameStrobe_O[4] O
FrameStrobe_O[5] O
FrameStrobe_O[6] O
FrameStrobe_O[7] O
FrameStrobe_O[8] O
FrameStrobe_O[9] O
N1END[0] I
N1END[1] I
N1END[2] I
N1END[3] I
N2END[0] I
N2END[1] I
N2END[2] I
N2END[3] I
N2END[4] I
N2END[5] I
N2END[6] I
N2END[7] I
N2MID[0] I
N2MID[1] I
N2MID[2] I
N2MID[3] I
N2MID[4] I
N2MID[5] I
N2MID[6] I
N2MID[7] I
N4END[0] I
N4END[10] I
N4END[11] I
N4END[12] I
N4END[13] I
N4END[14] I
N4END[15] I
N4END[1] I
N4END[2] I
N4END[3] I
N4END[4] I
N4END[5] I
N4END[6] I
N4END[7] I
N4END[8] I
N4END[9] I
NN4END[0] I
NN4END[10] I
NN4END[11] I
NN4END[12] I
NN4END[13] I
NN4END[14] I
NN4END[15] I
NN4END[1] I
NN4END[2] I
NN4END[3] I
NN4END[4] I
NN4END[5] I
NN4END[6] I
NN4END[7] I
NN4END[8] I
NN4END[9] I
S1BEG[0] O
S1BEG[1] O
S1BEG[2] O
S1BEG[3] O
S2BEG[0] O
S2BEG[1] O
S2BEG[2] O
S2BEG[3] O
S2BEG[4] O
S2BEG[5] O
S2BEG[6] O
S2BEG[7] O
S2BEGb[0] O
S2BEGb[1] O
S2BEGb[2] O
S2BEGb[3] O
S2BEGb[4] O
S2BEGb[5] O
S2BEGb[6] O
S2BEGb[7] O
S4BEG[0] O
S4BEG[10] O
S4BEG[11] O
S4BEG[12] O
S4BEG[13] O
S4BEG[14] O
S4BEG[15] O
S4BEG[1] O
S4BEG[2] O
S4BEG[3] O
S4BEG[4] O
S4BEG[5] O
S4BEG[6] O
S4BEG[7] O
S4BEG[8] O
S4BEG[9] O
SS4BEG[0] O
SS4BEG[10] O
SS4BEG[11] O
SS4BEG[12] O
SS4BEG[13] O
SS4BEG[14] O
SS4BEG[15] O
SS4BEG[1] O
SS4BEG[2] O
SS4BEG[3] O
SS4BEG[4] O
SS4BEG[5] O
SS4BEG[6] O
SS4BEG[7] O
SS4BEG[8] O
SS4BEG[9] O
UserCLK I
UserCLKo O

*D_NET *2 0.00253349
*CONN
*P FrameStrobe[0] I
*I *933:A I *D sky130_fd_sc_hd__buf_1
*CAP
1 FrameStrobe[0] 0.000661183
2 *933:A 0.000661183
3 *933:A SS4BEG[10] 2.24423e-05
4 *933:A *936:A 0.000204075
5 *933:A *937:A 0.000240719
6 *933:A *939:A 0.000387107
7 *933:A *940:A 0
8 *933:A *941:A 0
9 *933:A *942:A 0.000113623
10 *933:A *1003:A 0
11 *933:A *190:12 0.000144557
12 *933:A *209:14 7.67415e-06
13 *933:A *282:16 9.09288e-05
*RES
1 FrameStrobe[0] *933:A 24.595 
*END

*D_NET *3 0.00341181
*CONN
*P FrameStrobe[10] I
*I *944:A I *D sky130_fd_sc_hd__buf_1
*CAP
1 FrameStrobe[10] 0.000894951
2 *944:A 0.000894951
3 *944:A *865:A 0.000275553
4 *944:A *868:A 0.000112507
5 *944:A *928:A 2.09659e-05
6 *944:A *937:A 2.42236e-05
7 *944:A *939:A 0.000115691
8 *944:A *943:A 0.000256659
9 *944:A *945:A 0.00045674
10 *944:A *955:A 0.000185082
11 *944:A *966:A 2.96334e-05
12 *944:A *1004:A 0.000113431
13 *944:A *1059:A 4.40325e-06
14 *944:A *206:18 0
15 *944:A *219:30 2.70197e-05
*RES
1 FrameStrobe[10] *944:A 26.14 
*END

*D_NET *4 0.00272452
*CONN
*P FrameStrobe[11] I
*I *955:A I *D sky130_fd_sc_hd__buf_1
*CAP
1 FrameStrobe[11] 0.000550954
2 *955:A 0.000550954
3 *955:A *866:A 7.33524e-05
4 *955:A *939:A 0.000293025
5 *955:A *942:A 8.40213e-05
6 *955:A *943:A 4.29198e-05
7 *955:A *966:A 0.00041112
8 *955:A *219:30 0.000533087
9 *944:A *955:A 0.000185082
*RES
1 FrameStrobe[11] *955:A 19.515 
*END

*D_NET *5 0.00177751
*CONN
*P FrameStrobe[12] I
*I *966:A I *D sky130_fd_sc_hd__clkbuf_1
*CAP
1 FrameStrobe[12] 0.000437893
2 *966:A 0.000437893
3 *966:A *865:A 2.75229e-05
4 *966:A *928:A 0
5 *966:A *945:A 0
6 *966:A *977:A 0.000198247
7 *966:A *1059:A 7.10578e-05
8 *966:A *205:30 0.000123197
9 *966:A *206:18 4.09414e-05
10 *944:A *966:A 2.96334e-05
11 *955:A *966:A 0.00041112
*RES
1 FrameStrobe[12] *966:A 15.885 
*END

*D_NET *6 0.00246956
*CONN
*P FrameStrobe[13] I
*I *977:A I *D sky130_fd_sc_hd__clkbuf_1
*CAP
1 FrameStrobe[13] 0.000521903
2 *977:A 0.000521903
3 *977:A *945:A 9.10587e-05
4 *977:A *988:A 0.000976719
5 *977:A *1005:A 0.000113168
6 *977:A *209:14 4.65607e-05
7 *966:A *977:A 0.000198247
*RES
1 FrameStrobe[13] *977:A 23.08 
*END

*D_NET *7 0.00284436
*CONN
*P FrameStrobe[14] I
*I *988:A I *D sky130_fd_sc_hd__clkbuf_1
*CAP
1 FrameStrobe[14] 0.000394158
2 *988:A 0.000394158
3 *988:A *867:A 5.30673e-05
4 *988:A *935:A 0.000207885
5 *988:A *945:A 5.4003e-05
6 *988:A *999:A 0.000750913
7 *988:A *1004:A 0
8 *988:A *1060:A 1.34594e-05
9 *977:A *988:A 0.000976719
*RES
1 FrameStrobe[14] *988:A 23.53 
*END

*D_NET *8 0.00240772
*CONN
*P FrameStrobe[15] I
*I *999:A I *D sky130_fd_sc_hd__clkbuf_1
*CAP
1 FrameStrobe[15] 0.000580832
2 *999:A 0.000580832
3 *999:A *870:A 9.50342e-06
4 *999:A *934:A 0.000277223
5 *999:A *935:A 0
6 *999:A *1004:A 0.000208413
7 *988:A *999:A 0.000750913
*RES
1 FrameStrobe[15] *999:A 23.215 
*END

*D_NET *9 0.0018251
*CONN
*P FrameStrobe[16] I
*I *1004:A I *D sky130_fd_sc_hd__clkbuf_1
*CAP
1 FrameStrobe[16] 0.000445096
2 *1004:A 0.000445096
3 *1004:A *868:A 0.000122331
4 *1004:A *945:A 0
5 *1004:A *1005:A 0.000219232
6 *1004:A *206:18 0
7 *1004:A *208:12 0.000245893
8 *1004:A *209:12 2.56073e-05
9 *944:A *1004:A 0.000113431
10 *988:A *1004:A 0
11 *999:A *1004:A 0.000208413
*RES
1 FrameStrobe[16] *1004:A 15.885 
*END

*D_NET *10 0.00171455
*CONN
*P FrameStrobe[17] I
*I *1005:A I *D sky130_fd_sc_hd__clkbuf_1
*CAP
1 FrameStrobe[17] 0.000561839
2 *1005:A 0.000561839
3 *1005:A *869:A 5.21627e-05
4 *1005:A *934:A 0.00020631
5 *1005:A *935:A 0
6 *1005:A *1060:A 0
7 *1005:A *208:12 0
8 *977:A *1005:A 0.000113168
9 *1004:A *1005:A 0.000219232
*RES
1 FrameStrobe[17] *1005:A 15.99 
*END

*D_NET *11 0.00203273
*CONN
*P FrameStrobe[18] I
*I *934:A I *D sky130_fd_sc_hd__clkbuf_1
*CAP
1 FrameStrobe[18] 0.000763387
2 *934:A 0.000763387
3 *934:A *935:A 2.24252e-05
4 *999:A *934:A 0.000277223
5 *1005:A *934:A 0.00020631
*RES
1 FrameStrobe[18] *934:A 22.285 
*END

*D_NET *12 0.00205658
*CONN
*P FrameStrobe[19] I
*I *935:A I *D sky130_fd_sc_hd__clkbuf_1
*CAP
1 FrameStrobe[19] 0.000780039
2 *935:A 0.000780039
3 *935:A *867:A 5.5626e-05
4 *935:A *870:A 8.8266e-05
5 *935:A *871:A 0.000122299
6 *934:A *935:A 2.24252e-05
7 *988:A *935:A 0.000207885
8 *999:A *935:A 0
9 *1005:A *935:A 0
*RES
1 FrameStrobe[19] *935:A 19.62 
*END

*D_NET *13 0.00242672
*CONN
*P FrameStrobe[1] I
*I *936:A I *D sky130_fd_sc_hd__clkbuf_1
*CAP
1 FrameStrobe[1] 0.000663959
2 *936:A 0.000663959
3 *936:A SS4BEG[10] 0
4 *936:A *927:A 2.16833e-05
5 *936:A *937:A 0.000120598
6 *936:A *938:A 0.000202872
7 *936:A *940:A 4.66108e-05
8 *936:A *1003:A 0
9 *936:A *1037:A 0.000436032
10 *936:A *1040:A 0
11 *936:A *219:30 0
12 *936:A *281:16 6.69341e-05
13 *933:A *936:A 0.000204075
*RES
1 FrameStrobe[1] *936:A 19.2 
*END

*D_NET *14 0.00285705
*CONN
*P FrameStrobe[2] I
*I *937:A I *D sky130_fd_sc_hd__clkbuf_1
*CAP
1 FrameStrobe[2] 0.000463211
2 *937:A 0.000463211
3 *937:A *938:A 0.000281069
4 *937:A *939:A 5.74656e-05
5 *937:A *942:A 0.000115782
6 *937:A *943:A 0.000180682
7 *937:A *1037:A 9.65074e-05
8 *937:A *209:14 0.000796522
9 *937:A *219:30 8.53113e-06
10 *937:A *282:16 8.53113e-06
11 *933:A *937:A 0.000240719
12 *936:A *937:A 0.000120598
13 *944:A *937:A 2.42236e-05
*RES
1 FrameStrobe[2] *937:A 24.46 
*END

*D_NET *15 0.00248365
*CONN
*P FrameStrobe[3] I
*I *938:A I *D sky130_fd_sc_hd__clkbuf_1
*CAP
1 FrameStrobe[3] 0.000560465
2 *938:A 0.000560465
3 *938:A *928:A 4.18603e-06
4 *938:A *930:A 0.000140912
5 *938:A *939:A 0
6 *938:A *940:A 7.72844e-05
7 *938:A *1037:A 0
8 *938:A *1041:A 0.00033517
9 *938:A *1059:A 0.00020932
10 *938:A *219:30 0
11 *938:A *280:12 0
12 *938:A *282:16 6.36186e-05
13 *938:A *283:20 4.82919e-05
14 *936:A *938:A 0.000202872
15 *937:A *938:A 0.000281069
*RES
1 FrameStrobe[3] *938:A 18.57 
*END

*D_NET *16 0.00277078
*CONN
*P FrameStrobe[4] I
*I *939:A I *D sky130_fd_sc_hd__clkbuf_1
*CAP
1 FrameStrobe[4] 0.000627954
2 *939:A 0.000627954
3 *939:A *940:A 0.000455095
4 *939:A *942:A 0
5 *939:A *945:A 0.000160635
6 *939:A *1041:A 2.24423e-05
7 *939:A *209:14 2.34083e-05
8 *933:A *939:A 0.000387107
9 *937:A *939:A 5.74656e-05
10 *938:A *939:A 0
11 *944:A *939:A 0.000115691
12 *955:A *939:A 0.000293025
*RES
1 FrameStrobe[4] *939:A 24.115 
*END

*D_NET *17 0.00217243
*CONN
*P FrameStrobe[5] I
*I *940:A I *D sky130_fd_sc_hd__buf_1
*CAP
1 FrameStrobe[5] 0.000630378
2 *940:A 0.000630378
3 *940:A *865:A 0
4 *940:A *927:A 0.000138043
5 *940:A *929:A 1.91597e-05
6 *940:A *930:A 0
7 *940:A *941:A 2.24252e-05
8 *940:A *1041:A 0
9 *940:A *1059:A 1.61831e-05
10 *940:A *280:12 0.000136877
11 *933:A *940:A 0
12 *936:A *940:A 4.66108e-05
13 *938:A *940:A 7.72844e-05
14 *939:A *940:A 0.000455095
*RES
1 FrameStrobe[5] *940:A 17.235 
*END

*D_NET *18 0.00225629
*CONN
*P FrameStrobe[6] I
*I *941:A I *D sky130_fd_sc_hd__buf_1
*CAP
1 FrameStrobe[6] 0.000863807
2 *941:A 0.000863807
3 *941:A *942:A 0.000151095
4 *941:A *943:A 0.000204229
5 *941:A *219:30 0.000150929
6 *933:A *941:A 0
7 *940:A *941:A 2.24252e-05
*RES
1 FrameStrobe[6] *941:A 18.495 
*END

*D_NET *19 0.00250349
*CONN
*P FrameStrobe[7] I
*I *942:A I *D sky130_fd_sc_hd__buf_1
*CAP
1 FrameStrobe[7] 0.00056238
2 *942:A 0.00056238
3 *942:A *930:A 0.000196376
4 *942:A *943:A 0.000560723
5 *942:A *219:30 0.000157107
6 *933:A *942:A 0.000113623
7 *937:A *942:A 0.000115782
8 *939:A *942:A 0
9 *941:A *942:A 0.000151095
10 *955:A *942:A 8.40213e-05
*RES
1 FrameStrobe[7] *942:A 19.005 
*END

*D_NET *20 0.00272725
*CONN
*P FrameStrobe[8] I
*I *943:A I *D sky130_fd_sc_hd__buf_1
*CAP
1 FrameStrobe[8] 0.000585453
2 *943:A 0.000585453
3 *943:A *945:A 0.000264525
4 *943:A *205:30 4.66108e-05
5 *937:A *943:A 0.000180682
6 *941:A *943:A 0.000204229
7 *942:A *943:A 0.000560723
8 *944:A *943:A 0.000256659
9 *955:A *943:A 4.29198e-05
*RES
1 FrameStrobe[8] *943:A 18.915 
*END

*D_NET *21 0.00245348
*CONN
*P FrameStrobe[9] I
*I *945:A I *D sky130_fd_sc_hd__buf_1
*CAP
1 FrameStrobe[9] 0.000630979
2 *945:A 0.000630979
3 *945:A *866:A 9.40983e-05
4 *945:A *206:18 0
5 *945:A *207:18 7.04609e-05
6 *945:A *209:14 0
7 *939:A *945:A 0.000160635
8 *943:A *945:A 0.000264525
9 *944:A *945:A 0.00045674
10 *966:A *945:A 0
11 *977:A *945:A 9.10587e-05
12 *988:A *945:A 5.4003e-05
13 *1004:A *945:A 0
*RES
1 FrameStrobe[9] *945:A 22.285 
*END

*D_NET *22 0.00154804
*CONN
*P FrameStrobe_O[0] O
*I *1053:X O *D sky130_fd_sc_hd__clkbuf_4
*CAP
1 FrameStrobe_O[0] 0.000699219
2 *1053:X 0.000699219
3 FrameStrobe_O[0] *1052:A 2.30292e-05
4 FrameStrobe_O[0] *268:22 0.00012657
*RES
1 *1053:X FrameStrobe_O[0] 16.755 
*END

*D_NET *23 0.00133839
*CONN
*P FrameStrobe_O[10] O
*I *1054:X O *D sky130_fd_sc_hd__clkbuf_4
*CAP
1 FrameStrobe_O[10] 0.000625898
2 *1054:X 0.000625898
3 FrameStrobe_O[10] *281:46 8.65961e-05
*RES
1 *1054:X FrameStrobe_O[10] 14.565 
*END

*D_NET *24 0.00144367
*CONN
*P FrameStrobe_O[11] O
*I *1055:X O *D sky130_fd_sc_hd__clkbuf_4
*CAP
1 FrameStrobe_O[11] 0.000639725
2 *1055:X 0.000639725
3 FrameStrobe_O[11] *1055:A 4.99619e-05
4 FrameStrobe_O[11] *281:46 8.8266e-05
5 FrameStrobe_O[11] *283:26 2.59926e-05
*RES
1 *1055:X FrameStrobe_O[11] 14.28 
*END

*D_NET *25 0.00133839
*CONN
*P FrameStrobe_O[12] O
*I *1056:X O *D sky130_fd_sc_hd__clkbuf_4
*CAP
1 FrameStrobe_O[12] 0.000625898
2 *1056:X 0.000625898
3 FrameStrobe_O[12] *283:24 8.65961e-05
*RES
1 *1056:X FrameStrobe_O[12] 14.565 
*END

*D_NET *26 0.00130277
*CONN
*P FrameStrobe_O[13] O
*I *1057:X O *D sky130_fd_sc_hd__clkbuf_4
*CAP
1 FrameStrobe_O[13] 0.000588099
2 *1057:X 0.000588099
3 FrameStrobe_O[13] *283:24 0.00012657
*RES
1 *1057:X FrameStrobe_O[13] 13.59 
*END

*D_NET *27 0.00140102
*CONN
*P FrameStrobe_O[14] O
*I *1058:X O *D sky130_fd_sc_hd__clkbuf_4
*CAP
1 FrameStrobe_O[14] 0.000643041
2 *1058:X 0.000643041
3 FrameStrobe_O[14] *1058:A 4.89295e-05
4 FrameStrobe_O[14] *283:20 6.60042e-05
*RES
1 *1058:X FrameStrobe_O[14] 14.49 
*END

*D_NET *28 0.00129362
*CONN
*P FrameStrobe_O[15] O
*I *1059:X O *D sky130_fd_sc_hd__clkbuf_4
*CAP
1 FrameStrobe_O[15] 0.000583526
2 *1059:X 0.000583526
3 FrameStrobe_O[15] *1058:A 0.00012657
*RES
1 *1059:X FrameStrobe_O[15] 13.59 
*END

*D_NET *29 0.00128448
*CONN
*P FrameStrobe_O[16] O
*I *1060:X O *D sky130_fd_sc_hd__clkbuf_4
*CAP
1 FrameStrobe_O[16] 0.000578953
2 *1060:X 0.000578953
3 FrameStrobe_O[16] *1058:A 0.00012657
*RES
1 *1060:X FrameStrobe_O[16] 13.59 
*END

*D_NET *30 0.00144712
*CONN
*P FrameStrobe_O[17] O
*I *1061:X O *D sky130_fd_sc_hd__clkbuf_4
*CAP
1 FrameStrobe_O[17] 0.000684267
2 *1061:X 0.000684267
3 FrameStrobe_O[17] *867:A 4.85494e-05
4 FrameStrobe_O[17] *1061:A 3.00381e-05
*RES
1 *1061:X FrameStrobe_O[17] 16.41 
*END

*D_NET *31 0.00121623
*CONN
*P FrameStrobe_O[18] O
*I *1062:X O *D sky130_fd_sc_hd__clkbuf_4
*CAP