*SPEF "ieee 1481-1999"
*DESIGN "N_term_single2"
*DATE "11:11:11 Fri 11 11, 1111"
*VENDOR "OpenRCX"
*PROGRAM "Parallel Extraction"
*VERSION "1.0"
*DESIGN_FLOW "NAME_SCOPE LOCAL" "PIN_CAP NONE"
*DIVIDER /
*DELIMITER :
*BUS_DELIMITER []
*T_UNIT 1 NS
*C_UNIT 1 PF
*R_UNIT 1 OHM
*L_UNIT 1 HENRY

*NAME_MAP
*1 FrameStrobe[0]
*2 FrameStrobe[10]
*3 FrameStrobe[11]
*4 FrameStrobe[12]
*5 FrameStrobe[13]
*6 FrameStrobe[14]
*7 FrameStrobe[15]
*8 FrameStrobe[16]
*9 FrameStrobe[17]
*10 FrameStrobe[18]
*11 FrameStrobe[19]
*12 FrameStrobe[1]
*13 FrameStrobe[2]
*14 FrameStrobe[3]
*15 FrameStrobe[4]
*16 FrameStrobe[5]
*17 FrameStrobe[6]
*18 FrameStrobe[7]
*19 FrameStrobe[8]
*20 FrameStrobe[9]
*21 FrameStrobe_O[0]
*22 FrameStrobe_O[10]
*23 FrameStrobe_O[11]
*24 FrameStrobe_O[12]
*25 FrameStrobe_O[13]
*26 FrameStrobe_O[14]
*27 FrameStrobe_O[15]
*28 FrameStrobe_O[16]
*29 FrameStrobe_O[17]
*30 FrameStrobe_O[18]
*31 FrameStrobe_O[19]
*32 FrameStrobe_O[1]
*33 FrameStrobe_O[2]
*34 FrameStrobe_O[3]
*35 FrameStrobe_O[4]
*36 FrameStrobe_O[5]
*37 FrameStrobe_O[6]
*38 FrameStrobe_O[7]
*39 FrameStrobe_O[8]
*40 FrameStrobe_O[9]
*41 N1END[0]
*42 N1END[1]
*43 N1END[2]
*44 N1END[3]
*45 N2END[0]
*46 N2END[1]
*47 N2END[2]
*48 N2END[3]
*49 N2END[4]
*50 N2END[5]
*51 N2END[6]
*52 N2END[7]
*53 N2MID[0]
*54 N2MID[1]
*55 N2MID[2]
*56 N2MID[3]
*57 N2MID[4]
*58 N2MID[5]
*59 N2MID[6]
*60 N2MID[7]
*61 N4END[0]
*62 N4END[10]
*63 N4END[11]
*64 N4END[12]
*65 N4END[13]
*66 N4END[14]
*67 N4END[15]
*68 N4END[1]
*69 N4END[2]
*70 N4END[3]
*71 N4END[4]
*72 N4END[5]
*73 N4END[6]
*74 N4END[7]
*75 N4END[8]
*76 N4END[9]
*77 NN4END[0]
*78 NN4END[10]
*79 NN4END[11]
*80 NN4END[12]
*81 NN4END[13]
*82 NN4END[14]
*83 NN4END[15]
*84 NN4END[1]
*85 NN4END[2]
*86 NN4END[3]
*87 NN4END[4]
*88 NN4END[5]
*89 NN4END[6]
*90 NN4END[7]
*91 NN4END[8]
*92 NN4END[9]
*93 S1BEG[0]
*94 S1BEG[1]
*95 S1BEG[2]
*96 S1BEG[3]
*97 S2BEG[0]
*98 S2BEG[1]
*99 S2BEG[2]
*100 S2BEG[3]
*101 S2BEG[4]
*102 S2BEG[5]
*103 S2BEG[6]
*104 S2BEG[7]
*105 S2BEGb[0]
*106 S2BEGb[1]
*107 S2BEGb[2]
*108 S2BEGb[3]
*109 S2BEGb[4]
*110 S2BEGb[5]
*111 S2BEGb[6]
*112 S2BEGb[7]
*113 S4BEG[0]
*114 S4BEG[10]
*115 S4BEG[11]
*116 S4BEG[12]
*117 S4BEG[13]
*118 S4BEG[14]
*119 S4BEG[15]
*120 S4BEG[1]
*121 S4BEG[2]
*122 S4BEG[3]
*123 S4BEG[4]
*124 S4BEG[5]
*125 S4BEG[6]
*126 S4BEG[7]
*127 S4BEG[8]
*128 S4BEG[9]
*129 SS4BEG[0]
*130 SS4BEG[10]
*131 SS4BEG[11]
*132 SS4BEG[12]
*133 SS4BEG[13]
*134 SS4BEG[14]
*135 SS4BEG[15]
*136 SS4BEG[1]
*137 SS4BEG[2]
*138 SS4BEG[3]
*139 SS4BEG[4]
*140 SS4BEG[5]
*141 SS4BEG[6]
*142 SS4BEG[7]
*143 SS4BEG[8]
*144 SS4BEG[9]
*145 UserCLK
*146 UserCLKo
*149 FrameStrobe_O_i\[0\]
*150 FrameStrobe_O_i\[10\]
*151 FrameStrobe_O_i\[11\]
*152 FrameStrobe_O_i\[12\]
*153 FrameStrobe_O_i\[13\]
*154 FrameStrobe_O_i\[14\]
*155 FrameStrobe_O_i\[15\]
*156 FrameStrobe_O_i\[16\]
*157 FrameStrobe_O_i\[17\]
*158 FrameStrobe_O_i\[18\]
*159 FrameStrobe_O_i\[19\]
*160 FrameStrobe_O_i\[1\]
*161 FrameStrobe_O_i\[2\]
*162 FrameStrobe_O_i\[3\]
*163 FrameStrobe_O_i\[4\]
*164 FrameStrobe_O_i\[5\]
*165 FrameStrobe_O_i\[6\]
*166 FrameStrobe_O_i\[7\]
*167 FrameStrobe_O_i\[8\]
*168 FrameStrobe_O_i\[9\]
*169 net1
*170 net10
*171 net100
*172 net101
*173 net102
*174 net103
*175 net104
*176 net105
*177 net106
*178 net107
*179 net108
*180 net109
*181 net11
*182 net110
*183 net111
*184 net112
*185 net113
*186 net114
*187 net115
*188 net116
*189 net117
*190 net118
*191 net119
*192 net12
*193 net120
*194 net121
*195 net122
*196 net123
*197 net124
*198 net125
*199 net126
*200 net127
*201 net128
*202 net129
*203 net13
*204 net130
*205 net131
*206 net132
*207 net133
*208 net134
*209 net135
*210 net136
*211 net137
*212 net138
*213 net139
*214 net14
*215 net140
*216 net141
*217 net142
*218 net143
*219 net144
*220 net145
*221 net146
*222 net15
*223 net16
*224 net17
*225 net18
*226 net19
*227 net2
*228 net20
*229 net21
*230 net22
*231 net23
*232 net24
*233 net25
*234 net26
*235 net27
*236 net28
*237 net29
*238 net3
*239 net30
*240 net31
*241 net32
*242 net33
*243 net34
*244 net35
*245 net36
*246 net37
*247 net38
*248 net39
*249 net4
*250 net40
*251 net41
*252 net42
*253 net43
*254 net44
*255 net45
*256 net46
*257 net47
*258 net48
*259 net49
*260 net5
*261 net50
*262 net51
*263 net52
*264 net53
*265 net54
*266 net55
*267 net56
*268 net57
*269 net58
*270 net59
*271 net6
*272 net60
*273 net61
*274 net62
*275 net63
*276 net64
*277 net65
*278 net66
*279 net67
*280 net68
*281 net69
*282 net7
*283 net70
*284 net71
*285 net72
*286 net73
*287 net74
*288 net75
*289 net76
*290 net77
*291 net78
*292 net79
*293 net8
*294 net80
*295 net81
*296 net82
*297 net83
*298 net84
*299 net85
*300 net86
*301 net87
*302 net88
*303 net89
*304 net9
*305 net90
*306 net91
*307 net92
*308 net93
*309 net94
*310 net95
*311 net96
*312 net97
*313 net98
*314 net99
*315 FILLER_0_0_103
*316 FILLER_0_0_107
*317 FILLER_0_0_11
*318 FILLER_0_0_111
*319 FILLER_0_0_119
*320 FILLER_0_0_123
*321 FILLER_0_0_127
*322 FILLER_0_0_131
*323 FILLER_0_0_135
*324 FILLER_0_0_139
*325 FILLER_0_0_169
*326 FILLER_0_0_176
*327 FILLER_0_0_218
*328 FILLER_0_0_22
*329 FILLER_0_0_234
*330 FILLER_0_0_250
*331 FILLER_0_0_253
*332 FILLER_0_0_27
*333 FILLER_0_0_278
*334 FILLER_0_0_287
*335 FILLER_0_0_3
*336 FILLER_0_0_307
*337 FILLER_0_0_333
*338 FILLER_0_0_35
*339 FILLER_0_0_361
*340 FILLER_0_0_389
*341 FILLER_0_0_39
*342 FILLER_0_0_43
*343 FILLER_0_0_446
*344 FILLER_0_0_455
*345 FILLER_0_0_459
*346 FILLER_0_0_463
*347 FILLER_0_0_467
*348 FILLER_0_0_47
*349 FILLER_0_0_471
*350 FILLER_0_0_475
*351 FILLER_0_0_51
*352 FILLER_0_0_55
*353 FILLER_0_0_63
*354 FILLER_0_0_67
*355 FILLER_0_0_7
*356 FILLER_0_0_71
*357 FILLER_0_0_75
*358 FILLER_0_0_79
*359 FILLER_0_0_95
*360 FILLER_0_0_99
*361 FILLER_0_10_109
*362 FILLER_0_10_121
*363 FILLER_0_10_133
*364 FILLER_0_10_139
*365 FILLER_0_10_141
*366 FILLER_0_10_15
*367 FILLER_0_10_153
*368 FILLER_0_10_165
*369 FILLER_0_10_177
*370 FILLER_0_10_189
*371 FILLER_0_10_195
*372 FILLER_0_10_197
*373 FILLER_0_10_209
*374 FILLER_0_10_221
*375 FILLER_0_10_233
*376 FILLER_0_10_245
*377 FILLER_0_10_251
*378 FILLER_0_10_253
*379 FILLER_0_10_265
*380 FILLER_0_10_27
*381 FILLER_0_10_277
*382 FILLER_0_10_289
*383 FILLER_0_10_29
*384 FILLER_0_10_3
*385 FILLER_0_10_301
*386 FILLER_0_10_307
*387 FILLER_0_10_309
*388 FILLER_0_10_321
*389 FILLER_0_10_333
*390 FILLER_0_10_345
*391 FILLER_0_10_357
*392 FILLER_0_10_363
*393 FILLER_0_10_365
*394 FILLER_0_10_377
*395 FILLER_0_10_389
*396 FILLER_0_10_401
*397 FILLER_0_10_41
*398 FILLER_0_10_413
*399 FILLER_0_10_419
*400 FILLER_0_10_421
*401 FILLER_0_10_433
*402 FILLER_0_10_445
*403 FILLER_0_10_457
*404 FILLER_0_10_469
*405 FILLER_0_10_475
*406 FILLER_0_10_477
*407 FILLER_0_10_53
*408 FILLER_0_10_65
*409 FILLER_0_10_77
*410 FILLER_0_10_83
*411 FILLER_0_10_85
*412 FILLER_0_10_97
*413 FILLER_0_11_105
*414 FILLER_0_11_111
*415 FILLER_0_11_113
*416 FILLER_0_11_125
*417 FILLER_0_11_137
*418 FILLER_0_11_149
*419 FILLER_0_11_15
*420 FILLER_0_11_161
*421 FILLER_0_11_167
*422 FILLER_0_11_169
*423 FILLER_0_11_181
*424 FILLER_0_11_193
*425 FILLER_0_11_205
*426 FILLER_0_11_217
*427 FILLER_0_11_223
*428 FILLER_0_11_225
*429 FILLER_0_11_237
*430 FILLER_0_11_249
*431 FILLER_0_11_261
*432 FILLER_0_11_27
*433 FILLER_0_11_273
*434 FILLER_0_11_279
*435 FILLER_0_11_281
*436 FILLER_0_11_293
*437 FILLER_0_11_3
*438 FILLER_0_11_305
*439 FILLER_0_11_317
*440 FILLER_0_11_329
*441 FILLER_0_11_335
*442 FILLER_0_11_337
*443 FILLER_0_11_349
*444 FILLER_0_11_361
*445 FILLER_0_11_373
*446 FILLER_0_11_385
*447 FILLER_0_11_39
*448 FILLER_0_11_391
*449 FILLER_0_11_393
*450 FILLER_0_11_405
*451 FILLER_0_11_417
*452 FILLER_0_11_429
*453 FILLER_0_11_441
*454 FILLER_0_11_447
*455 FILLER_0_11_449
*456 FILLER_0_11_461
*457 FILLER_0_11_473
*458 FILLER_0_11_481
*459 FILLER_0_11_51
*460 FILLER_0_11_55
*461 FILLER_0_11_57
*462 FILLER_0_11_69
*463 FILLER_0_11_81
*464 FILLER_0_11_93
*465 FILLER_0_12_109
*466 FILLER_0_12_121
*467 FILLER_0_12_133
*468 FILLER_0_12_139
*469 FILLER_0_12_141
*470 FILLER_0_12_15
*471 FILLER_0_12_153
*472 FILLER_0_12_165
*473 FILLER_0_12_177
*474 FILLER_0_12_189
*475 FILLER_0_12_195
*476 FILLER_0_12_197
*477 FILLER_0_12_209
*478 FILLER_0_12_221
*479 FILLER_0_12_233
*480 FILLER_0_12_245
*481 FILLER_0_12_251
*482 FILLER_0_12_253
*483 FILLER_0_12_265
*484 FILLER_0_12_27
*485 FILLER_0_12_277
*486 FILLER_0_12_289
*487 FILLER_0_12_29
*488 FILLER_0_12_3
*489 FILLER_0_12_301
*490 FILLER_0_12_307
*491 FILLER_0_12_309
*492 FILLER_0_12_321
*493 FILLER_0_12_333
*494 FILLER_0_12_345
*495 FILLER_0_12_357
*496 FILLER_0_12_363
*497 FILLER_0_12_365
*498 FILLER_0_12_377
*499 FILLER_0_12_389
*500 FILLER_0_12_401
*501 FILLER_0_12_41
*502 FILLER_0_12_413
*503 FILLER_0_12_419
*504 FILLER_0_12_421
*505 FILLER_0_12_433
*506 FILLER_0_12_445
*507 FILLER_0_12_457
*508 FILLER_0_12_469
*509 FILLER_0_12_475
*510 FILLER_0_12_477
*511 FILLER_0_12_53
*512 FILLER_0_12_65
*513 FILLER_0_12_77
*514 FILLER_0_12_83
*515 FILLER_0_12_85
*516 FILLER_0_12_97
*517 FILLER_0_13_104
*518 FILLER_0_13_113
*519 FILLER_0_13_121
*520 FILLER_0_13_128
*521 FILLER_0_13_141
*522 FILLER_0_13_147
*523 FILLER_0_13_152
*524 FILLER_0_13_164
*525 FILLER_0_13_169
*526 FILLER_0_13_176
*527 FILLER_0_13_188
*528 FILLER_0_13_203
*529 FILLER_0_13_21
*530 FILLER_0_13_215
*531 FILLER_0_13_219
*532 FILLER_0_13_225
*533 FILLER_0_13_237
*534 FILLER_0_13_241
*535 FILLER_0_13_248
*536 FILLER_0_13_253
*537 FILLER_0_13_265
*538 FILLER_0_13_27
*539 FILLER_0_13_272
*540 FILLER_0_13_281
*541 FILLER_0_13_289
*542 FILLER_0_13_296
*543 FILLER_0_13_309
*544 FILLER_0_13_313
*545 FILLER_0_13_320
*546 FILLER_0_13_33
*547 FILLER_0_13_332
*548 FILLER_0_13_337
*549 FILLER_0_13_344
*550 FILLER_0_13_356
*551 FILLER_0_13_371
*552 FILLER_0_13_383
*553 FILLER_0_13_387
*554 FILLER_0_13_393
*555 FILLER_0_13_405
*556 FILLER_0_13_411
*557 FILLER_0_13_416
*558 FILLER_0_13_421
*559 FILLER_0_13_433
*560 FILLER_0_13_440
*561 FILLER_0_13_449
*562 FILLER_0_13_45
*563 FILLER_0_13_457
*564 FILLER_0_13_464
*565 FILLER_0_13_51
*566 FILLER_0_13_57
*567 FILLER_0_13_69
*568 FILLER_0_13_73
*569 FILLER_0_13_80
*570 FILLER_0_13_85
*571 FILLER_0_13_9
*572 FILLER_0_13_97
*573 FILLER_0_1_107
*574 FILLER_0_1_111
*575 FILLER_0_1_113
*576 FILLER_0_1_125
*577 FILLER_0_1_137
*578 FILLER_0_1_149
*579 FILLER_0_1_15
*580 FILLER_0_1_169
*581 FILLER_0_1_19
*582 FILLER_0_1_220
*583 FILLER_0_1_225
*584 FILLER_0_1_23
*585 FILLER_0_1_252
*586 FILLER_0_1_266
*587 FILLER_0_1_278
*588 FILLER_0_1_285
*589 FILLER_0_1_295
*590 FILLER_0_1_322
*591 FILLER_0_1_343
*592 FILLER_0_1_35
*593 FILLER_0_1_351
*594 FILLER_0_1_364
*595 FILLER_0_1_379
*596 FILLER_0_1_393
*597 FILLER_0_1_400
*598 FILLER_0_1_407
*599 FILLER_0_1_423
*600 FILLER_0_1_436
*601 FILLER_0_1_447
*602 FILLER_0_1_452
*603 FILLER_0_1_464
*604 FILLER_0_1_47
*605 FILLER_0_1_472
*606 FILLER_0_1_479
*607 FILLER_0_1_55
*608 FILLER_0_1_57
*609 FILLER_0_1_69
*610 FILLER_0_1_81
*611 FILLER_0_1_87
*612 FILLER_0_1_9
*613 FILLER_0_1_91
*614 FILLER_0_1_95
*615 FILLER_0_2_109
*616 FILLER_0_2_121
*617 FILLER_0_2_133
*618 FILLER_0_2_139
*619 FILLER_0_2_141
*620 FILLER_0_2_15
*621 FILLER_0_2_153
*622 FILLER_0_2_165
*623 FILLER_0_2_180
*624 FILLER_0_2_188
*625 FILLER_0_2_192
*626 FILLER_0_2_197
*627 FILLER_0_2_205
*628 FILLER_0_2_209
*629 FILLER_0_2_213
*630 FILLER_0_2_221
*631 FILLER_0_2_251
*632 FILLER_0_2_256
*633 FILLER_0_2_268
*634 FILLER_0_2_27
*635 FILLER_0_2_289
*636 FILLER_0_2_29
*637 FILLER_0_2_294
*638 FILLER_0_2_298
*639 FILLER_0_2_3
*640 FILLER_0_2_306
*641 FILLER_0_2_309
*642 FILLER_0_2_318
*643 FILLER_0_2_325
*644 FILLER_0_2_332
*645 FILLER_0_2_336
*646 FILLER_0_2_340
*647 FILLER_0_2_346
*648 FILLER_0_2_352
*649 FILLER_0_2_365
*650 FILLER_0_2_370
*651 FILLER_0_2_382
*652 FILLER_0_2_390
*653 FILLER_0_2_394
*654 FILLER_0_2_406
*655 FILLER_0_2_41
*656 FILLER_0_2_414
*657 FILLER_0_2_421
*658 FILLER_0_2_433
*659 FILLER_0_2_439
*660 FILLER_0_2_443
*661 FILLER_0_2_455
*662 FILLER_0_2_463
*663 FILLER_0_2_469
*664 FILLER_0_2_53
*665 FILLER_0_2_65
*666 FILLER_0_2_77
*667 FILLER_0_2_83
*668 FILLER_0_2_85
*669 FILLER_0_2_97
*670 FILLER_0_3_105
*671 FILLER_0_3_111
*672 FILLER_0_3_113
*673 FILLER_0_3_125
*674 FILLER_0_3_137
*675 FILLER_0_3_149
*676 FILLER_0_3_15
*677 FILLER_0_3_161
*678 FILLER_0_3_167
*679 FILLER_0_3_169
*680 FILLER_0_3_181
*681 FILLER_0_3_193
*682 FILLER_0_3_205
*683 FILLER_0_3_217
*684 FILLER_0_3_223
*685 FILLER_0_3_225
*686 FILLER_0_3_237
*687 FILLER_0_3_249
*688 FILLER_0_3_261
*689 FILLER_0_3_27
*690 FILLER_0_3_273
*691 FILLER_0_3_279
*692 FILLER_0_3_281
*693 FILLER_0_3_293
*694 FILLER_0_3_3
*695 FILLER_0_3_305
*696 FILLER_0_3_317
*697 FILLER_0_3_329
*698 FILLER_0_3_335
*699 FILLER_0_3_337
*700 FILLER_0_3_349
*701 FILLER_0_3_361
*702 FILLER_0_3_373
*703 FILLER_0_3_385
*704 FILLER_0_3_39
*705 FILLER_0_3_391
*706 FILLER_0_3_393
*707 FILLER_0_3_405
*708 FILLER_0_3_417
*709 FILLER_0_3_429
*710 FILLER_0_3_441
*711 FILLER_0_3_447
*712 FILLER_0_3_449
*713 FILLER_0_3_461
*714 FILLER_0_3_473
*715 FILLER_0_3_481
*716 FILLER_0_3_51
*717 FILLER_0_3_55
*718 FILLER_0_3_57
*719 FILLER_0_3_69
*720 FILLER_0_3_81
*721 FILLER_0_3_93
*722 FILLER_0_4_109
*723 FILLER_0_4_121
*724 FILLER_0_4_133
*725 FILLER_0_4_139
*726 FILLER_0_4_141
*727 FILLER_0_4_15
*728 FILLER_0_4_153
*729 FILLER_0_4_165
*730 FILLER_0_4_177
*731 FILLER_0_4_189
*732 FILLER_0_4_195
*733 FILLER_0_4_197
*734 FILLER_0_4_209
*735 FILLER_0_4_221
*736 FILLER_0_4_233
*737 FILLER_0_4_245
*738 FILLER_0_4_251
*739 FILLER_0_4_253
*740 FILLER_0_4_265
*741 FILLER_0_4_27
*742 FILLER_0_4_277
*743 FILLER_0_4_289
*744 FILLER_0_4_29
*745 FILLER_0_4_3
*746 FILLER_0_4_301
*747 FILLER_0_4_307
*748 FILLER_0_4_309
*749 FILLER_0_4_321
*750 FILLER_0_4_333
*751 FILLER_0_4_345
*752 FILLER_0_4_357
*753 FILLER_0_4_363
*754 FILLER_0_4_365
*755 FILLER_0_4_377
*756 FILLER_0_4_389
*757 FILLER_0_4_401
*758 FILLER_0_4_41
*759 FILLER_0_4_413
*760 FILLER_0_4_419
*761 FILLER_0_4_421
*762 FILLER_0_4_433
*763 FILLER_0_4_445
*764 FILLER_0_4_457
*765 FILLER_0_4_469
*766 FILLER_0_4_475
*767 FILLER_0_4_477
*768 FILLER_0_4_53
*769 FILLER_0_4_65
*770 FILLER_0_4_77
*771 FILLER_0_4_83
*772 FILLER_0_4_85
*773 FILLER_0_4_97
*774 FILLER_0_5_105
*775 FILLER_0_5_111
*776 FILLER_0_5_113
*777 FILLER_0_5_125
*778 FILLER_0_5_137
*779 FILLER_0_5_149
*780 FILLER_0_5_15
*781 FILLER_0_5_161
*782 FILLER_0_5_167
*783 FILLER_0_5_169
*784 FILLER_0_5_181
*785 FILLER_0_5_193
*786 FILLER_0_5_205
*787 FILLER_0_5_217
*788 FILLER_0_5_223
*789 FILLER_0_5_225
*790 FILLER_0_5_237
*791 FILLER_0_5_249
*792 FILLER_0_5_261
*793 FILLER_0_5_27
*794 FILLER_0_5_273
*795 FILLER_0_5_279
*796 FILLER_0_5_281
*797 FILLER_0_5_293
*798 FILLER_0_5_3
*799 FILLER_0_5_305
*800 FILLER_0_5_317
*801 FILLER_0_5_329
*802 FILLER_0_5_335
*803 FILLER_0_5_337
*804 FILLER_0_5_349
*805 FILLER_0_5_361
*806 FILLER_0_5_373
*807 FILLER_0_5_385
*808 FILLER_0_5_39
*809 FILLER_0_5_391
*810 FILLER_0_5_393
*811 FILLER_0_5_405
*812 FILLER_0_5_417
*813 FILLER_0_5_429
*814 FILLER_0_5_441
*815 FILLER_0_5_447
*816 FILLER_0_5_449
*817 FILLER_0_5_461
*818 FILLER_0_5_473
*819 FILLER_0_5_481
*820 FILLER_0_5_51
*821 FILLER_0_5_55
*822 FILLER_0_5_57
*823 FILLER_0_5_69
*824 FILLER_0_5_81
*825 FILLER_0_5_93
*826 FILLER_0_6_109
*827 FILLER_0_6_121
*828 FILLER_0_6_133
*829 FILLER_0_6_139
*830 FILLER_0_6_141
*831 FILLER_0_6_15
*832 FILLER_0_6_153
*833 FILLER_0_6_165
*834 FILLER_0_6_177
*835 FILLER_0_6_189
*836 FILLER_0_6_195
*837 FILLER_0_6_197
*838 FILLER_0_6_209
*839 FILLER_0_6_221
*840 FILLER_0_6_233
*841 FILLER_0_6_245
*842 FILLER_0_6_251
*843 FILLER_0_6_253
*844 FILLER_0_6_265
*845 FILLER_0_6_27
*846 FILLER_0_6_277
*847 FILLER_0_6_289
*848 FILLER_0_6_29
*849 FILLER_0_6_3
*850 FILLER_0_6_301
*851 FILLER_0_6_307
*852 FILLER_0_6_309
*853 FILLER_0_6_321
*854 FILLER_0_6_333
*855 FILLER_0_6_345
*856 FILLER_0_6_357
*857 FILLER_0_6_363
*858 FILLER_0_6_365
*859 FILLER_0_6_377
*860 FILLER_0_6_389
*861 FILLER_0_6_401
*862 FILLER_0_6_41
*863 FILLER_0_6_413
*864 FILLER_0_6_419
*865 FILLER_0_6_421
*866 FILLER_0_6_433
*867 FILLER_0_6_445
*868 FILLER_0_6_457
*869 FILLER_0_6_469
*870 FILLER_0_6_475
*871 FILLER_0_6_477
*872 FILLER_0_6_53
*873 FILLER_0_6_65
*874 FILLER_0_6_77
*875 FILLER_0_6_83
*876 FILLER_0_6_85
*877 FILLER_0_6_97
*878 FILLER_0_7_105
*879 FILLER_0_7_111
*880 FILLER_0_7_113
*881 FILLER_0_7_125
*882 FILLER_0_7_137
*883 FILLER_0_7_149
*884 FILLER_0_7_15
*885 FILLER_0_7_161
*886 FILLER_0_7_167
*887 FILLER_0_7_169
*888 FILLER_0_7_181
*889 FILLER_0_7_193
*890 FILLER_0_7_205
*891 FILLER_0_7_217
*892 FILLER_0_7_223
*893 FILLER_0_7_225
*894 FILLER_0_7_237
*895 FILLER_0_7_249
*896 FILLER_0_7_261
*897 FILLER_0_7_27
*898 FILLER_0_7_273
*899 FILLER_0_7_279
*900 FILLER_0_7_281
*901 FILLER_0_7_293
*902 FILLER_0_7_3
*903 FILLER_0_7_305
*904 FILLER_0_7_317
*905 FILLER_0_7_329
*906 FILLER_0_7_335
*907 FILLER_0_7_337
*908 FILLER_0_7_349
*909 FILLER_0_7_361
*910 FILLER_0_7_373
*911 FILLER_0_7_385
*912 FILLER_0_7_39
*913 FILLER_0_7_391
*914 FILLER_0_7_393
*915 FILLER_0_7_405
*916 FILLER_0_7_417
*917 FILLER_0_7_429
*918 FILLER_0_7_441
*919 FILLER_0_7_447
*920 FILLER_0_7_449
*921 FILLER_0_7_461
*922 FILLER_0_7_473
*923 FILLER_0_7_481
*924 FILLER_0_7_51
*925 FILLER_0_7_55
*926 FILLER_0_7_57
*927 FILLER_0_7_69
*928 FILLER_0_7_81
*929 FILLER_0_7_93
*930 FILLER_0_8_109
*931 FILLER_0_8_121
*932 FILLER_0_8_133
*933 FILLER_0_8_139
*934 FILLER_0_8_141
*935 FILLER_0_8_15
*936 FILLER_0_8_153
*937 FILLER_0_8_165
*938 FILLER_0_8_177
*939 FILLER_0_8_189
*940 FILLER_0_8_195
*941 FILLER_0_8_197
*942 FILLER_0_8_209
*943 FILLER_0_8_221
*944 FILLER_0_8_233
*945 FILLER_0_8_245
*946 FILLER_0_8_251
*947 FILLER_0_8_253
*948 FILLER_0_8_265
*949 FILLER_0_8_27
*950 FILLER_0_8_277
*951 FILLER_0_8_289
*952 FILLER_0_8_29
*953 FILLER_0_8_3
*954 FILLER_0_8_301
*955 FILLER_0_8_307
*956 FILLER_0_8_309
*957 FILLER_0_8_321
*958 FILLER_0_8_333
*959 FILLER_0_8_345
*960 FILLER_0_8_357
*961 FILLER_0_8_363
*962 FILLER_0_8_365
*963 FILLER_0_8_377
*964 FILLER_0_8_389
*965 FILLER_0_8_401
*966 FILLER_0_8_41
*967 FILLER_0_8_413
*968 FILLER_0_8_419
*969 FILLER_0_8_421
*970 FILLER_0_8_433
*971 FILLER_0_8_445
*972 FILLER_0_8_457
*973 FILLER_0_8_469
*974 FILLER_0_8_475
*975 FILLER_0_8_477
*976 FILLER_0_8_53
*977 FILLER_0_8_65
*978 FILLER_0_8_77
*979 FILLER_0_8_83
*980 FILLER_0_8_85
*981 FILLER_0_8_97
*982 FILLER_0_9_105
*983 FILLER_0_9_111
*984 FILLER_0_9_113
*985 FILLER_0_9_125
*986 FILLER_0_9_137
*987 FILLER_0_9_149
*988 FILLER_0_9_15
*989 FILLER_0_9_161
*990 FILLER_0_9_167
*991 FILLER_0_9_169
*992 FILLER_0_9_181
*993 FILLER_0_9_193
*994 FILLER_0_9_205
*995 FILLER_0_9_217
*996 FILLER_0_9_223
*997 FILLER_0_9_225
*998 FILLER_0_9_237
*999 FILLER_0_9_249
*1000 FILLER_0_9_261
*1001 FILLER_0_9_27
*1002 FILLER_0_9_273
*1003 FILLER_0_9_279
*1004 FILLER_0_9_281
*1005 FILLER_0_9_293
*1006 FILLER_0_9_3
*1007 FILLER_0_9_305
*1008 FILLER_0_9_317
*1009 FILLER_0_9_329
*1010 FILLER_0_9_335
*1011 FILLER_0_9_337
*1012 FILLER_0_9_349
*1013 FILLER_0_9_361
*1014 FILLER_0_9_373
*1015 FILLER_0_9_385
*1016 FILLER_0_9_39
*1017 FILLER_0_9_391
*1018 FILLER_0_9_393
*1019 FILLER_0_9_405
*1020 FILLER_0_9_417
*1021 FILLER_0_9_429
*1022 FILLER_0_9_441
*1023 FILLER_0_9_447
*1024 FILLER_0_9_449
*1025 FILLER_0_9_461
*1026 FILLER_0_9_473
*1027 FILLER_0_9_481
*1028 FILLER_0_9_51
*1029 FILLER_0_9_55
*1030 FILLER_0_9_57
*1031 FILLER_0_9_69
*1032 FILLER_0_9_81
*1033 FILLER_0_9_93
*1034 Inst_N_term_single2_switch_matrix/_00_
*1035 Inst_N_term_single2_switch_matrix/_01_
*1036 Inst_N_term_single2_switch_matrix/_02_
*1037 Inst_N_term_single2_switch_matrix/_03_
*1038 Inst_N_term_single2_switch_matrix/_04_
*1039 Inst_N_term_single2_switch_matrix/_05_
*1040 Inst_N_term_single2_switch_matrix/_06_
*1041 Inst_N_term_single2_switch_matrix/_07_
*1042 Inst_N_term_single2_switch_matrix/_08_
*1043 Inst_N_term_single2_switch_matrix/_09_
*1044 Inst_N_term_single2_switch_matrix/_10_
*1045 Inst_N_term_single2_switch_matrix/_11_
*1046 Inst_N_term_single2_switch_matrix/_12_
*1047 Inst_N_term_single2_switch_matrix/_13_
*1048 Inst_N_term_single2_switch_matrix/_14_
*1049 Inst_N_term_single2_switch_matrix/_15_
*1050 Inst_N_term_single2_switch_matrix/_16_
*1051 Inst_N_term_single2_switch_matrix/_17_
*1052 Inst_N_term_single2_switch_matrix/_18_
*1053 Inst_N_term_single2_switch_matrix/_19_
*1054 Inst_N_term_single2_switch_matrix/_20_
*1055 Inst_N_term_single2_switch_matrix/_21_
*1056 Inst_N_term_single2_switch_matrix/_22_
*1057 Inst_N_term_single2_switch_matrix/_23_
*1058 Inst_N_term_single2_switch_matrix/_24_
*1059 Inst_N_term_single2_switch_matrix/_25_
*1060 Inst_N_term_single2_switch_matrix/_26_
*1061 Inst_N_term_single2_switch_matrix/_27_
*1062 Inst_N_term_single2_switch_matrix/_28_
*1063 Inst_N_term_single2_switch_matrix/_29_
*1064 Inst_N_term_single2_switch_matrix/_30_
*1065 Inst_N_term_single2_switch_matrix/_31_
*1066 Inst_N_term_single2_switch_matrix/_32_
*1067 Inst_N_term_single2_switch_matrix/_33_
*1068 Inst_N_term_single2_switch_matrix/_34_
*1069 Inst_N_term_single2_switch_matrix/_35_
*1070 Inst_N_term_single2_switch_matrix/_36_
*1071 Inst_N_term_single2_switch_matrix/_37_
*1072 Inst_N_term_single2_switch_matrix/_38_
*1073 Inst_N_term_single2_switch_matrix/_39_
*1074 Inst_N_term_single2_switch_matrix/_40_
*1075 Inst_N_term_single2_switch_matrix/_41_
*1076 Inst_N_term_single2_switch_matrix/_42_
*1077 Inst_N_term_single2_switch_matrix/_43_
*1078 Inst_N_term_single2_switch_matrix/_44_
*1079 Inst_N_term_single2_switch_matrix/_45_
*1080 Inst_N_term_single2_switch_matrix/_46_
*1081 Inst_N_term_single2_switch_matrix/_47_
*1082 Inst_N_term_single2_switch_matrix/_48_
*1083 Inst_N_term_single2_switch_matrix/_49_
*1084 Inst_N_term_single2_switch_matrix/_50_
*1085 Inst_N_term_single2_switch_matrix/_51_
*1086 PHY_0
*1087 PHY_1
*1088 PHY_10
*1089 PHY_11
*1090 PHY_12
*1091 PHY_13
*1092 PHY_14
*1093 PHY_15
*1094 PHY_16
*1095 PHY_17
*1096 PHY_18
*1097 PHY_19
*1098 PHY_2
*1099 PHY_20
*1100 PHY_21
*1101 PHY_22
*1102 PHY_23
*1103 PHY_24
*1104 PHY_25
*1105 PHY_26
*1106 PHY_27
*1107 PHY_3
*1108 PHY_4
*1109 PHY_5
*1110 PHY_6
*1111 PHY_7
*1112 PHY_8
*1113 PHY_9
*1114 TAP_100
*1115 TAP_101
*1116 TAP_102
*1117 TAP_103
*1118 TAP_104
*1119 TAP_105
*1120 TAP_106
*1121 TAP_107
*1122 TAP_108
*1123 TAP_109
*1124 TAP_110
*1125 TAP_111
*1126 TAP_112
*1127 TAP_113
*1128 TAP_114
*1129 TAP_115
*1130 TAP_116
*1131 TAP_117
*1132 TAP_118
*1133 TAP_119
*1134 TAP_120
*1135 TAP_121
*1136 TAP_122
*1137 TAP_123
*1138 TAP_124
*1139 TAP_125
*1140 TAP_126
*1141 TAP_127
*1142 TAP_128
*1143 TAP_129
*1144 TAP_130
*1145 TAP_131
*1146 TAP_132
*1147 TAP_133
*1148 TAP_134
*1149 TAP_135
*1150 TAP_136
*1151 TAP_137
*1152 TAP_138
*1153 TAP_139
*1154 TAP_140
*1155 TAP_141
*1156 TAP_142
*1157 TAP_143
*1158 TAP_144
*1159 TAP_145
*1160 TAP_146
*1161 TAP_147
*1162 TAP_148
*1163 TAP_149
*1164 TAP_150
*1165 TAP_151
*1166 TAP_152
*1167 TAP_153
*1168 TAP_154
*1169 TAP_155
*1170 TAP_156
*1171 TAP_157
*1172 TAP_158
*1173 TAP_159
*1174 TAP_160
*1175 TAP_161
*1176 TAP_162
*1177 TAP_163
*1178 TAP_28
*1179 TAP_29
*1180 TAP_30
*1181 TAP_31
*1182 TAP_32
*1183 TAP_33
*1184 TAP_34
*1185 TAP_35
*1186 TAP_36
*1187 TAP_37
*1188 TAP_38
*1189 TAP_39
*1190 TAP_40
*1191 TAP_41
*1192 TAP_42
*1193 TAP_43
*1194 TAP_44
*1195 TAP_45
*1196 TAP_46
*1197 TAP_47
*1198 TAP_48
*1199 TAP_49
*1200 TAP_50
*1201 TAP_51
*1202 TAP_52
*1203 TAP_53
*1204 TAP_54
*1205 TAP_55
*1206 TAP_56
*1207 TAP_57
*1208 TAP_58
*1209 TAP_59
*1210 TAP_60
*1211 TAP_61
*1212 TAP_62
*1213 TAP_63
*1214 TAP_64
*1215 TAP_65
*1216 TAP_66
*1217 TAP_67
*1218 TAP_68
*1219 TAP_69
*1220 TAP_70
*1221 TAP_71
*1222 TAP_72
*1223 TAP_73
*1224 TAP_74
*1225 TAP_75
*1226 TAP_76
*1227 TAP_77
*1228 TAP_78
*1229 TAP_79
*1230 TAP_80
*1231 TAP_81
*1232 TAP_82
*1233 TAP_83
*1234 TAP_84
*1235 TAP_85
*1236 TAP_86
*1237 TAP_87
*1238 TAP_88
*1239 TAP_89
*1240 TAP_90
*1241 TAP_91
*1242 TAP_92
*1243 TAP_93
*1244 TAP_94
*1245 TAP_95
*1246 TAP_96
*1247 TAP_97
*1248 TAP_98
*1249 TAP_99
*1250 input1
*1251 input10
*1252 input11
*1253 input12
*1254 input13
*1255 input14
*1256 input15
*1257 input16
*1258 input17
*1259 input18
*1260 input19
*1261 input2
*1262 input20
*1263 input21
*1264 input22
*1265 input23
*1266 input24
*1267 input25
*1268 input26
*1269 input27
*1270 input28
*1271 input29
*1272 input3
*1273 input30
*1274 input31
*1275 input32
*1276 input33
*1277 input34
*1278 input35
*1279 input36
*1280 input37
*1281 input38
*1282 input39
*1283 input4
*1284 input40
*1285 input41
*1286 input42
*1287 input43
*1288 input44
*1289 input45
*1290 input46
*1291 input47
*1292 input48
*1293 input49
*1294 input5
*1295 input50
*1296 input51
*1297 input52
*1298 input53
*1299 input54
*1300 input55
*1301 input56
*1302 input57
*1303 input58
*1304 input59
*1305 input6
*1306 input60
*1307 input61
*1308 input62
*1309 input63
*1310 input64
*1311 input65
*1312 input66
*1313 input67
*1314 input68
*1315 input69
*1316 input7
*1317 input70
*1318 input71
*1319 input72
*1320 input73
*1321 input8
*1322 input9
*1323 inst_clk_buf
*1324 output100
*1325 output101
*1326 output102
*1327 output103
*1328 output104
*1329 output105
*1330 output106
*1331 output107
*1332 output108
*1333 output109
*1334 output110
*1335 output111
*1336 output112
*1337 output113
*1338 output114
*1339 output115
*1340 output116
*1341 output117
*1342 output118
*1343 output119
*1344 output120
*1345 output121
*1346 output122
*1347 output123
*1348 output124
*1349 output125
*1350 output126
*1351 output127
*1352 output128
*1353 output129
*1354 output130
*1355 output131
*1356 output132
*1357 output133
*1358 output134
*1359 output135
*1360 output136
*1361 output137
*1362 output138
*1363 output139
*1364 output140
*1365 output141
*1366 output142
*1367 output143
*1368 output144
*1369 output145
*1370 output146
*1371 output74
*1372 output75
*1373 output76
*1374 output77
*1375 output78
*1376 output79
*1377 output80
*1378 output81
*1379 output82
*1380 output83
*1381 output84
*1382 output85
*1383 output86
*1384 output87
*1385 output88
*1386 output89
*1387 output90
*1388 output91
*1389 output92
*1390 output93
*1391 output94
*1392 output95
*1393 output96
*1394 output97
*1395 output98
*1396 output99
*1397 strobe_inbuf_0/_0_
*1398 strobe_inbuf_1/_0_
*1399 strobe_inbuf_10/_0_
*1400 strobe_inbuf_11/_0_
*1401 strobe_inbuf_12/_0_
*1402 strobe_inbuf_13/_0_
*1403 strobe_inbuf_14/_0_
*1404 strobe_inbuf_15/_0_
*1405 strobe_inbuf_16/_0_
*1406 strobe_inbuf_17/_0_
*1407 strobe_inbuf_18/_0_
*1408 strobe_inbuf_19/_0_
*1409 strobe_inbuf_2/_0_
*1410 strobe_inbuf_3/_0_
*1411 strobe_inbuf_4/_0_
*1412 strobe_inbuf_5/_0_
*1413 strobe_inbuf_6/_0_
*1414 strobe_inbuf_7/_0_
*1415 strobe_inbuf_8/_0_
*1416 strobe_inbuf_9/_0_
*1417 strobe_outbuf_0/_0_
*1418 strobe_outbuf_1/_0_
*1419 strobe_outbuf_10/_0_
*1420 strobe_outbuf_11/_0_
*1421 strobe_outbuf_12/_0_
*1422 strobe_outbuf_13/_0_
*1423 strobe_outbuf_14/_0_
*1424 strobe_outbuf_15/_0_
*1425 strobe_outbuf_16/_0_
*1426 strobe_outbuf_17/_0_
*1427 strobe_outbuf_18/_0_
*1428 strobe_outbuf_19/_0_
*1429 strobe_outbuf_2/_0_
*1430 strobe_outbuf_3/_0_
*1431 strobe_outbuf_4/_0_
*1432 strobe_outbuf_5/_0_
*1433 strobe_outbuf_6/_0_
*1434 strobe_outbuf_7/_0_
*1435 strobe_outbuf_8/_0_
*1436 strobe_outbuf_9/_0_

*PORTS
FrameStrobe[0] I
FrameStrobe[10] I
FrameStrobe[11] I
FrameStrobe[12] I
FrameStrobe[13] I
FrameStrobe[14] I
FrameStrobe[15] I
FrameStrobe[16] I
FrameStrobe[17] I
FrameStrobe[18] I
FrameStrobe[19] I
FrameStrobe[1] I
FrameStrobe[2] I
FrameStrobe[3] I
FrameStrobe[4] I
FrameStrobe[5] I
FrameStrobe[6] I
FrameStrobe[7] I
FrameStrobe[8] I
FrameStrobe[9] I
FrameStrobe_O[0] O
FrameStrobe_O[10] O
FrameStrobe_O[11] O
FrameStrobe_O[12] O
FrameStrobe_O[13] O
FrameStrobe_O[14] O
FrameStrobe_O[15] O
FrameStrobe_O[16] O
FrameStrobe_O[17] O
FrameStrobe_O[18] O
FrameStrobe_O[19] O
FrameStrobe_O[1] O
FrameStrobe_O[2] O
FrameStrobe_O[3] O
FrameStrobe_O[4] O
FrameStrobe_O[5] O
FrameStrobe_O[6] O
FrameStrobe_O[7] O
FrameStrobe_O[8] O
FrameStrobe_O[9] O
N1END[0] I
N1END[1] I
N1END[2] I
N1END[3] I
N2END[0] I
N2END[1] I
N2END[2] I
N2END[3] I
N2END[4] I
N2END[5] I
N2END[6] I
N2END[7] I
N2MID[0] I
N2MID[1] I
N2MID[2] I
N2MID[3] I
N2MID[4] I
N2MID[5] I
N2MID[6] I
N2MID[7] I
N4END[0] I
N4END[10] I
N4END[11] I
N4END[12] I
N4END[13] I
N4END[14] I
N4END[15] I
N4END[1] I
N4END[2] I
N4END[3] I
N4END[4] I
N4END[5] I
N4END[6] I
N4END[7] I
N4END[8] I
N4END[9] I
NN4END[0] I
NN4END[10] I
NN4END[11] I
NN4END[12] I
NN4END[13] I
NN4END[14] I
NN4END[15] I
NN4END[1] I
NN4END[2] I
NN4END[3] I
NN4END[4] I
NN4END[5] I
NN4END[6] I
NN4END[7] I
NN4END[8] I
NN4END[9] I
S1BEG[0] O
S1BEG[1] O
S1BEG[2] O
S1BEG[3] O
S2BEG[0] O
S2BEG[1] O
S2BEG[2] O
S2BEG[3] O
S2BEG[4] O
S2BEG[5] O
S2BEG[6] O
S2BEG[7] O
S2BEGb[0] O
S2BEGb[1] O
S2BEGb[2] O
S2BEGb[3] O
S2BEGb[4] O
S2BEGb[5] O
S2BEGb[6] O
S2BEGb[7] O
S4BEG[0] O
S4BEG[10] O
S4BEG[11] O
S4BEG[12] O
S4BEG[13] O
S4BEG[14] O
S4BEG[15] O
S4BEG[1] O
S4BEG[2] O
S4BEG[3] O
S4BEG[4] O
S4BEG[5] O
S4BEG[6] O
S4BEG[7] O
S4BEG[8] O
S4BEG[9] O
SS4BEG[0] O
SS4BEG[10] O
SS4BEG[11] O
SS4BEG[12] O
SS4BEG[13] O
SS4BEG[14] O
SS4BEG[15] O
SS4BEG[1] O
SS4BEG[2] O
SS4BEG[3] O
SS4BEG[4] O
SS4BEG[5] O
SS4BEG[6] O
SS4BEG[7] O
SS4BEG[8] O
SS4BEG[9] O
UserCLK I
UserCLKo O

*D_NET *1 0.00172425
*CONN
*P FrameStrobe[0] I
*I *1250:A I *D sky130_fd_sc_hd__buf_1
*CAP
1 FrameStrobe[0] 0.000629459
2 *1250:A 0.000629459
3 *1250:A SS4BEG[14] 1.14169e-05
4 *1250:A *1253:A 0.000213528
5 *1250:A *1320:A 0
6 *1250:A *169:38 4.30166e-05
7 *1250:A *286:10 0.000197365
*RES
1 FrameStrobe[0] *1250:A 13.515 
*END

*D_NET *2 0.000715383
*CONN
*P FrameStrobe[10] I
*I *1261:A I *D sky130_fd_sc_hd__buf_1
*CAP
1 FrameStrobe[10] 0.000337423
2 *1261:A 0.000337423
3 *1261:A *1262:A 0
4 *1261:A *1272:A 0
5 *1261:A *227:24 4.05358e-05
6 *1261:A *228:12 0
*RES
1 FrameStrobe[10] *1261:A 9.51 
*END

*D_NET *3 0.000685836
*CONN
*P FrameStrobe[11] I
*I *1272:A I *D sky130_fd_sc_hd__buf_1
*CAP
1 FrameStrobe[11] 0.000342918
2 *1272:A 0.000342918
3 *1272:A *1283:A 0
4 *1261:A *1272:A 0
*RES
1 FrameStrobe[11] *1272:A 9.51 
*END

*D_NET *4 0.000949328
*CONN
*P FrameStrobe[12] I
*I *1283:A I *D sky130_fd_sc_hd__buf_1
*CAP
1 FrameStrobe[12] 0.000262339
2 *1283:A 0.000262339
3 *1283:A *1294:A 0.00042465
4 *1283:A *1305:A 0
5 *1272:A *1283:A 0
*RES