*SPEF "ieee 1481-1999"
*DESIGN "N_term_RAM_IO"
*DATE "11:11:11 Fri 11 11, 1111"
*VENDOR "OpenRCX"
*PROGRAM "Parallel Extraction"
*VERSION "1.0"
*DESIGN_FLOW "NAME_SCOPE LOCAL" "PIN_CAP NONE"
*DIVIDER /
*DELIMITER :
*BUS_DELIMITER []
*T_UNIT 1 NS
*C_UNIT 1 PF
*R_UNIT 1 OHM
*L_UNIT 1 HENRY

*NAME_MAP
*1 FrameStrobe[0]
*2 FrameStrobe[10]
*3 FrameStrobe[11]
*4 FrameStrobe[12]
*5 FrameStrobe[13]
*6 FrameStrobe[14]
*7 FrameStrobe[15]
*8 FrameStrobe[16]
*9 FrameStrobe[17]
*10 FrameStrobe[18]
*11 FrameStrobe[19]
*12 FrameStrobe[1]
*13 FrameStrobe[2]
*14 FrameStrobe[3]
*15 FrameStrobe[4]
*16 FrameStrobe[5]
*17 FrameStrobe[6]
*18 FrameStrobe[7]
*19 FrameStrobe[8]
*20 FrameStrobe[9]
*21 FrameStrobe_O[0]
*22 FrameStrobe_O[10]
*23 FrameStrobe_O[11]
*24 FrameStrobe_O[12]
*25 FrameStrobe_O[13]
*26 FrameStrobe_O[14]
*27 FrameStrobe_O[15]
*28 FrameStrobe_O[16]
*29 FrameStrobe_O[17]
*30 FrameStrobe_O[18]
*31 FrameStrobe_O[19]
*32 FrameStrobe_O[1]
*33 FrameStrobe_O[2]
*34 FrameStrobe_O[3]
*35 FrameStrobe_O[4]
*36 FrameStrobe_O[5]
*37 FrameStrobe_O[6]
*38 FrameStrobe_O[7]
*39 FrameStrobe_O[8]
*40 FrameStrobe_O[9]
*41 N1END[0]
*42 N1END[1]
*43 N1END[2]
*44 N1END[3]
*45 N2END[0]
*46 N2END[1]
*47 N2END[2]
*48 N2END[3]
*49 N2END[4]
*50 N2END[5]
*51 N2END[6]
*52 N2END[7]
*53 N2MID[0]
*54 N2MID[1]
*55 N2MID[2]
*56 N2MID[3]
*57 N2MID[4]
*58 N2MID[5]
*59 N2MID[6]
*60 N2MID[7]
*61 N4END[0]
*62 N4END[10]
*63 N4END[11]
*64 N4END[12]
*65 N4END[13]
*66 N4END[14]
*67 N4END[15]
*68 N4END[1]
*69 N4END[2]
*70 N4END[3]
*71 N4END[4]
*72 N4END[5]
*73 N4END[6]
*74 N4END[7]
*75 N4END[8]
*76 N4END[9]
*77 S1BEG[0]
*78 S1BEG[1]
*79 S1BEG[2]
*80 S1BEG[3]
*81 S2BEG[0]
*82 S2BEG[1]
*83 S2BEG[2]
*84 S2BEG[3]
*85 S2BEG[4]
*86 S2BEG[5]
*87 S2BEG[6]
*88 S2BEG[7]
*89 S2BEGb[0]
*90 S2BEGb[1]
*91 S2BEGb[2]
*92 S2BEGb[3]
*93 S2BEGb[4]
*94 S2BEGb[5]
*95 S2BEGb[6]
*96 S2BEGb[7]
*97 S4BEG[0]
*98 S4BEG[10]
*99 S4BEG[11]
*100 S4BEG[12]
*101 S4BEG[13]
*102 S4BEG[14]
*103 S4BEG[15]
*104 S4BEG[1]
*105 S4BEG[2]
*106 S4BEG[3]
*107 S4BEG[4]
*108 S4BEG[5]
*109 S4BEG[6]
*110 S4BEG[7]
*111 S4BEG[8]
*112 S4BEG[9]
*113 UserCLK
*114 UserCLKo
*117 Inst_N_term_RAM_IO_switch_matrix\.S1BEG0
*118 Inst_N_term_RAM_IO_switch_matrix\.S1BEG1
*119 Inst_N_term_RAM_IO_switch_matrix\.S1BEG2
*120 Inst_N_term_RAM_IO_switch_matrix\.S1BEG3
*121 Inst_N_term_RAM_IO_switch_matrix\.S2BEG0
*122 Inst_N_term_RAM_IO_switch_matrix\.S2BEG1
*123 Inst_N_term_RAM_IO_switch_matrix\.S2BEG2
*124 Inst_N_term_RAM_IO_switch_matrix\.S2BEG3
*125 Inst_N_term_RAM_IO_switch_matrix\.S2BEG4
*126 Inst_N_term_RAM_IO_switch_matrix\.S2BEG5
*127 Inst_N_term_RAM_IO_switch_matrix\.S2BEG6
*128 Inst_N_term_RAM_IO_switch_matrix\.S2BEG7
*129 Inst_N_term_RAM_IO_switch_matrix\.S2BEGb0
*130 Inst_N_term_RAM_IO_switch_matrix\.S2BEGb1
*131 Inst_N_term_RAM_IO_switch_matrix\.S2BEGb2
*132 Inst_N_term_RAM_IO_switch_matrix\.S2BEGb3
*133 Inst_N_term_RAM_IO_switch_matrix\.S2BEGb4
*134 Inst_N_term_RAM_IO_switch_matrix\.S2BEGb5
*135 Inst_N_term_RAM_IO_switch_matrix\.S2BEGb6
*136 Inst_N_term_RAM_IO_switch_matrix\.S2BEGb7
*137 Inst_N_term_RAM_IO_switch_matrix\.S4BEG0
*138 Inst_N_term_RAM_IO_switch_matrix\.S4BEG1
*139 Inst_N_term_RAM_IO_switch_matrix\.S4BEG10
*140 Inst_N_term_RAM_IO_switch_matrix\.S4BEG11
*141 Inst_N_term_RAM_IO_switch_matrix\.S4BEG12
*142 Inst_N_term_RAM_IO_switch_matrix\.S4BEG13
*143 Inst_N_term_RAM_IO_switch_matrix\.S4BEG14
*144 Inst_N_term_RAM_IO_switch_matrix\.S4BEG15
*145 Inst_N_term_RAM_IO_switch_matrix\.S4BEG2
*146 Inst_N_term_RAM_IO_switch_matrix\.S4BEG3
*147 Inst_N_term_RAM_IO_switch_matrix\.S4BEG4
*148 Inst_N_term_RAM_IO_switch_matrix\.S4BEG5
*149 Inst_N_term_RAM_IO_switch_matrix\.S4BEG6
*150 Inst_N_term_RAM_IO_switch_matrix\.S4BEG7
*151 Inst_N_term_RAM_IO_switch_matrix\.S4BEG8
*152 Inst_N_term_RAM_IO_switch_matrix\.S4BEG9
*153 net1
*154 net10
*155 net100
*156 net101
*157 net102
*158 net103
*159 net104
*160 net105
*161 net106
*162 net107
*163 net108
*164 net109
*165 net11
*166 net110
*167 net111
*168 net112
*169 net113
*170 net114
*171 net12
*172 net13
*173 net14
*174 net15
*175 net16
*176 net17
*177 net18
*178 net19
*179 net2
*180 net20
*181 net21
*182 net22
*183 net23
*184 net24
*185 net25
*186 net26
*187 net27
*188 net28
*189 net29
*190 net3
*191 net30
*192 net31
*193 net32
*194 net33
*195 net34
*196 net35
*197 net36
*198 net37
*199 net38
*200 net39
*201 net4
*202 net40
*203 net41
*204 net42
*205 net43
*206 net44
*207 net45
*208 net46
*209 net47
*210 net48
*211 net49
*212 net5
*213 net50
*214 net51
*215 net52
*216 net53
*217 net54
*218 net55
*219 net56
*220 net57
*221 net58
*222 net59
*223 net6
*224 net60
*225 net61
*226 net62
*227 net63
*228 net64
*229 net65
*230 net66
*231 net67
*232 net68
*233 net69
*234 net7
*235 net70
*236 net71
*237 net72
*238 net73
*239 net74
*240 net75
*241 net76
*242 net77
*243 net78
*244 net79
*245 net8
*246 net80
*247 net81
*248 net82
*249 net83
*250 net84
*251 net85
*252 net86
*253 net87
*254 net88
*255 net89
*256 net9
*257 net90
*258 net91
*259 net92
*260 net93
*261 net94
*262 net95
*263 net96
*264 net97
*265 net98
*266 net99
*267 strobe_inbuf_0\.X
*268 strobe_inbuf_1\.X
*269 strobe_inbuf_10\.X
*270 strobe_inbuf_11\.X
*271 strobe_inbuf_12\.X
*272 strobe_inbuf_13\.X
*273 strobe_inbuf_14\.X
*274 strobe_inbuf_15\.X
*275 strobe_inbuf_16\.X
*276 strobe_inbuf_17\.X
*277 strobe_inbuf_18\.X
*278 strobe_inbuf_19\.X
*279 strobe_inbuf_2\.X
*280 strobe_inbuf_3\.X
*281 strobe_inbuf_4\.X
*282 strobe_inbuf_5\.X
*283 strobe_inbuf_6\.X
*284 strobe_inbuf_7\.X
*285 strobe_inbuf_8\.X
*286 strobe_inbuf_9\.X
*287 strobe_outbuf_0\.X
*288 strobe_outbuf_1\.X
*289 strobe_outbuf_10\.X
*290 strobe_outbuf_11\.X
*291 strobe_outbuf_12\.X
*292 strobe_outbuf_13\.X
*293 strobe_outbuf_14\.X
*294 strobe_outbuf_15\.X
*295 strobe_outbuf_16\.X
*296 strobe_outbuf_17\.X
*297 strobe_outbuf_18\.X
*298 strobe_outbuf_19\.X
*299 strobe_outbuf_2\.X
*300 strobe_outbuf_3\.X
*301 strobe_outbuf_4\.X
*302 strobe_outbuf_5\.X
*303 strobe_outbuf_6\.X
*304 strobe_outbuf_7\.X
*305 strobe_outbuf_8\.X
*306 strobe_outbuf_9\.X
*307 ANTENNA_1
*308 ANTENNA_2
*309 ANTENNA_3
*310 ANTENNA_4
*311 FILLER_0_0_110
*312 FILLER_0_0_126
*313 FILLER_0_0_136
*314 FILLER_0_0_151
*315 FILLER_0_0_215
*316 FILLER_0_0_219
*317 FILLER_0_0_253
*318 FILLER_0_0_3
*319 FILLER_0_0_85
*320 FILLER_0_10_109
*321 FILLER_0_10_121
*322 FILLER_0_10_133
*323 FILLER_0_10_139
*324 FILLER_0_10_141
*325 FILLER_0_10_15
*326 FILLER_0_10_153
*327 FILLER_0_10_165
*328 FILLER_0_10_177
*329 FILLER_0_10_189
*330 FILLER_0_10_195
*331 FILLER_0_10_197
*332 FILLER_0_10_209
*333 FILLER_0_10_221
*334 FILLER_0_10_233
*335 FILLER_0_10_245
*336 FILLER_0_10_251
*337 FILLER_0_10_253
*338 FILLER_0_10_27
*339 FILLER_0_10_29
*340 FILLER_0_10_3
*341 FILLER_0_10_41
*342 FILLER_0_10_53
*343 FILLER_0_10_65
*344 FILLER_0_10_77
*345 FILLER_0_10_83
*346 FILLER_0_10_85
*347 FILLER_0_10_97
*348 FILLER_0_11_111
*349 FILLER_0_11_113
*350 FILLER_0_11_125
*351 FILLER_0_11_137
*352 FILLER_0_11_149
*353 FILLER_0_11_15
*354 FILLER_0_11_161
*355 FILLER_0_11_167
*356 FILLER_0_11_169
*357 FILLER_0_11_181
*358 FILLER_0_11_193
*359 FILLER_0_11_205
*360 FILLER_0_11_217
*361 FILLER_0_11_223
*362 FILLER_0_11_225
*363 FILLER_0_11_237
*364 FILLER_0_11_252
*365 FILLER_0_11_27
*366 FILLER_0_11_3
*367 FILLER_0_11_39
*368 FILLER_0_11_51
*369 FILLER_0_11_55
*370 FILLER_0_11_60
*371 FILLER_0_11_64
*372 FILLER_0_11_71
*373 FILLER_0_11_75
*374 FILLER_0_11_87
*375 FILLER_0_11_99
*376 FILLER_0_12_105
*377 FILLER_0_12_112
*378 FILLER_0_12_124
*379 FILLER_0_12_132
*380 FILLER_0_12_139
*381 FILLER_0_12_141
*382 FILLER_0_12_15
*383 FILLER_0_12_153
*384 FILLER_0_12_165
*385 FILLER_0_12_171
*386 FILLER_0_12_178
*387 FILLER_0_12_190
*388 FILLER_0_12_197
*389 FILLER_0_12_209
*390 FILLER_0_12_221
*391 FILLER_0_12_233
*392 FILLER_0_12_241
*393 FILLER_0_12_253
*394 FILLER_0_12_27
*395 FILLER_0_12_29
*396 FILLER_0_12_3
*397 FILLER_0_12_41
*398 FILLER_0_12_53
*399 FILLER_0_12_57
*400 FILLER_0_12_65
*401 FILLER_0_12_70
*402 FILLER_0_12_82
*403 FILLER_0_12_85
*404 FILLER_0_12_97
*405 FILLER_0_13_102
*406 FILLER_0_13_110
*407 FILLER_0_13_113
*408 FILLER_0_13_120
*409 FILLER_0_13_128
*410 FILLER_0_13_136
*411 FILLER_0_13_141
*412 FILLER_0_13_146
*413 FILLER_0_13_152
*414 FILLER_0_13_159
*415 FILLER_0_13_16
*416 FILLER_0_13_167
*417 FILLER_0_13_178
*418 FILLER_0_13_185
*419 FILLER_0_13_193
*420 FILLER_0_13_203
*421 FILLER_0_13_211
*422 FILLER_0_13_219
*423 FILLER_0_13_225
*424 FILLER_0_13_240
*425 FILLER_0_13_250
*426 FILLER_0_13_253
*427 FILLER_0_13_33
*428 FILLER_0_13_37
*429 FILLER_0_13_42
*430 FILLER_0_13_50
*431 FILLER_0_13_55
*432 FILLER_0_13_60
*433 FILLER_0_13_71
*434 FILLER_0_13_81
*435 FILLER_0_13_85
*436 FILLER_0_13_89
*437 FILLER_0_13_9
*438 FILLER_0_13_94
*439 FILLER_0_1_132
*440 FILLER_0_1_137
*441 FILLER_0_1_14
*442 FILLER_0_1_144
*443 FILLER_0_1_169
*444 FILLER_0_1_213
*445 FILLER_0_1_3
*446 FILLER_0_1_40
*447 FILLER_0_1_45
*448 FILLER_0_1_57
*449 FILLER_0_2_104
*450 FILLER_0_2_108
*451 FILLER_0_2_119
*452 FILLER_0_2_128
*453 FILLER_0_2_135
*454 FILLER_0_2_139
*455 FILLER_0_2_141
*456 FILLER_0_2_149
*457 FILLER_0_2_156
*458 FILLER_0_2_160
*459 FILLER_0_2_177
*460 FILLER_0_2_18
*461 FILLER_0_2_181
*462 FILLER_0_2_194
*463 FILLER_0_2_212
*464 FILLER_0_2_250
*465 FILLER_0_2_253
*466 FILLER_0_2_26
*467 FILLER_0_2_29
*468 FILLER_0_2_37
*469 FILLER_0_2_48
*470 FILLER_0_2_56
*471 FILLER_0_2_60
*472 FILLER_0_2_72
*473 FILLER_0_2_85
*474 FILLER_0_2_96
*475 FILLER_0_3_105
*476 FILLER_0_3_111
*477 FILLER_0_3_113
*478 FILLER_0_3_125
*479 FILLER_0_3_137
*480 FILLER_0_3_149
*481 FILLER_0_3_15
*482 FILLER_0_3_161
*483 FILLER_0_3_167
*484 FILLER_0_3_169
*485 FILLER_0_3_181
*486 FILLER_0_3_193
*487 FILLER_0_3_205
*488 FILLER_0_3_212
*489 FILLER_0_3_225
*490 FILLER_0_3_231
*491 FILLER_0_3_253
*492 FILLER_0_3_27
*493 FILLER_0_3_39
*494 FILLER_0_3_51
*495 FILLER_0_3_55
*496 FILLER_0_3_57
*497 FILLER_0_3_69
*498 FILLER_0_3_81
*499 FILLER_0_3_93
*500 FILLER_0_4_100
*501 FILLER_0_4_112
*502 FILLER_0_4_124
*503 FILLER_0_4_136
*504 FILLER_0_4_141
*505 FILLER_0_4_15
*506 FILLER_0_4_153
*507 FILLER_0_4_165
*508 FILLER_0_4_177
*509 FILLER_0_4_189
*510 FILLER_0_4_195
*511 FILLER_0_4_197
*512 FILLER_0_4_205
*513 FILLER_0_4_209
*514 FILLER_0_4_221
*515 FILLER_0_4_233
*516 FILLER_0_4_239
*517 FILLER_0_4_253
*518 FILLER_0_4_27
*519 FILLER_0_4_29
*520 FILLER_0_4_3
*521 FILLER_0_4_41
*522 FILLER_0_4_53
*523 FILLER_0_4_65
*524 FILLER_0_4_77
*525 FILLER_0_4_83
*526 FILLER_0_4_88
*527 FILLER_0_4_92
*528 FILLER_0_5_106
*529 FILLER_0_5_113
*530 FILLER_0_5_125
*531 FILLER_0_5_137
*532 FILLER_0_5_149
*533 FILLER_0_5_15
*534 FILLER_0_5_161
*535 FILLER_0_5_167
*536 FILLER_0_5_169
*537 FILLER_0_5_181
*538 FILLER_0_5_193
*539 FILLER_0_5_205
*540 FILLER_0_5_217
*541 FILLER_0_5_223
*542 FILLER_0_5_225
*543 FILLER_0_5_237
*544 FILLER_0_5_249
*545 FILLER_0_5_253
*546 FILLER_0_5_27
*547 FILLER_0_5_3
*548 FILLER_0_5_39
*549 FILLER_0_5_51
*550 FILLER_0_5_55
*551 FILLER_0_5_57
*552 FILLER_0_5_69
*553 FILLER_0_5_77
*554 FILLER_0_5_85
*555 FILLER_0_5_94
*556 FILLER_0_6_109
*557 FILLER_0_6_117
*558 FILLER_0_6_123
*559 FILLER_0_6_135
*560 FILLER_0_6_139
*561 FILLER_0_6_141
*562 FILLER_0_6_15
*563 FILLER_0_6_153
*564 FILLER_0_6_165
*565 FILLER_0_6_177
*566 FILLER_0_6_189
*567 FILLER_0_6_195
*568 FILLER_0_6_197
*569 FILLER_0_6_206
*570 FILLER_0_6_218
*571 FILLER_0_6_230
*572 FILLER_0_6_242
*573 FILLER_0_6_250
*574 FILLER_0_6_253
*575 FILLER_0_6_27
*576 FILLER_0_6_29
*577 FILLER_0_6_3
*578 FILLER_0_6_41
*579 FILLER_0_6_53
*580 FILLER_0_6_65
*581 FILLER_0_6_77
*582 FILLER_0_6_83
*583 FILLER_0_6_85
*584 FILLER_0_6_97
*585 FILLER_0_7_105
*586 FILLER_0_7_111
*587 FILLER_0_7_113
*588 FILLER_0_7_123
*589 FILLER_0_7_135
*590 FILLER_0_7_15
*591 FILLER_0_7_153
*592 FILLER_0_7_165
*593 FILLER_0_7_169
*594 FILLER_0_7_181
*595 FILLER_0_7_193
*596 FILLER_0_7_202
*597 FILLER_0_7_214
*598 FILLER_0_7_222
*599 FILLER_0_7_225
*600 FILLER_0_7_237
*601 FILLER_0_7_249
*602 FILLER_0_7_27
*603 FILLER_0_7_3
*604 FILLER_0_7_39
*605 FILLER_0_7_51
*606 FILLER_0_7_55
*607 FILLER_0_7_57
*608 FILLER_0_7_69
*609 FILLER_0_7_81
*610 FILLER_0_7_93
*611 FILLER_0_8_109
*612 FILLER_0_8_121
*613 FILLER_0_8_133
*614 FILLER_0_8_139
*615 FILLER_0_8_141
*616 FILLER_0_8_148
*617 FILLER_0_8_15
*618 FILLER_0_8_160
*619 FILLER_0_8_172
*620 FILLER_0_8_184
*621 FILLER_0_8_200
*622 FILLER_0_8_207
*623 FILLER_0_8_219
*624 FILLER_0_8_231
*625 FILLER_0_8_243
*626 FILLER_0_8_251
*627 FILLER_0_8_253
*628 FILLER_0_8_27
*629 FILLER_0_8_29
*630 FILLER_0_8_3
*631 FILLER_0_8_41
*632 FILLER_0_8_53
*633 FILLER_0_8_65
*634 FILLER_0_8_77
*635 FILLER_0_8_83
*636 FILLER_0_8_85
*637 FILLER_0_8_97
*638 FILLER_0_9_105
*639 FILLER_0_9_111
*640 FILLER_0_9_113
*641 FILLER_0_9_125
*642 FILLER_0_9_137
*643 FILLER_0_9_149
*644 FILLER_0_9_15
*645 FILLER_0_9_161
*646 FILLER_0_9_167
*647 FILLER_0_9_169
*648 FILLER_0_9_181
*649 FILLER_0_9_193
*650 FILLER_0_9_205
*651 FILLER_0_9_217
*652 FILLER_0_9_223
*653 FILLER_0_9_225
*654 FILLER_0_9_237
*655 FILLER_0_9_249
*656 FILLER_0_9_27
*657 FILLER_0_9_3
*658 FILLER_0_9_39
*659 FILLER_0_9_51
*660 FILLER_0_9_55
*661 FILLER_0_9_57
*662 FILLER_0_9_69
*663 FILLER_0_9_81
*664 FILLER_0_9_93
*665 Inst_N_term_RAM_IO_switch_matrix\._00_
*666 Inst_N_term_RAM_IO_switch_matrix\._01_
*667 Inst_N_term_RAM_IO_switch_matrix\._02_
*668 Inst_N_term_RAM_IO_switch_matrix\._03_
*669 Inst_N_term_RAM_IO_switch_matrix\._04_
*670 Inst_N_term_RAM_IO_switch_matrix\._05_
*671 Inst_N_term_RAM_IO_switch_matrix\._06_
*672 Inst_N_term_RAM_IO_switch_matrix\._07_
*673 Inst_N_term_RAM_IO_switch_matrix\._08_
*674 Inst_N_term_RAM_IO_switch_matrix\._09_
*675 Inst_N_term_RAM_IO_switch_matrix\._10_
*676 Inst_N_term_RAM_IO_switch_matrix\._11_
*677 Inst_N_term_RAM_IO_switch_matrix\._12_
*678 Inst_N_term_RAM_IO_switch_matrix\._13_
*679 Inst_N_term_RAM_IO_switch_matrix\._14_
*680 Inst_N_term_RAM_IO_switch_matrix\._15_
*681 Inst_N_term_RAM_IO_switch_matrix\._16_
*682 Inst_N_term_RAM_IO_switch_matrix\._17_
*683 Inst_N_term_RAM_IO_switch_matrix\._18_
*684 Inst_N_term_RAM_IO_switch_matrix\._19_
*685 Inst_N_term_RAM_IO_switch_matrix\._20_
*686 Inst_N_term_RAM_IO_switch_matrix\._21_
*687 Inst_N_term_RAM_IO_switch_matrix\._22_
*688 Inst_N_term_RAM_IO_switch_matrix\._23_
*689 Inst_N_term_RAM_IO_switch_matrix\._24_
*690 Inst_N_term_RAM_IO_switch_matrix\._25_
*691 Inst_N_term_RAM_IO_switch_matrix\._26_
*692 Inst_N_term_RAM_IO_switch_matrix\._27_
*693 Inst_N_term_RAM_IO_switch_matrix\._28_
*694 Inst_N_term_RAM_IO_switch_matrix\._29_
*695 Inst_N_term_RAM_IO_switch_matrix\._30_
*696 Inst_N_term_RAM_IO_switch_matrix\._31_
*697 Inst_N_term_RAM_IO_switch_matrix\._32_
*698 Inst_N_term_RAM_IO_switch_matrix\._33_
*699 Inst_N_term_RAM_IO_switch_matrix\._34_
*700 Inst_N_term_RAM_IO_switch_matrix\._35_
*701 PHY_0
*702 PHY_1
*703 PHY_10
*704 PHY_11
*705 PHY_12
*706 PHY_13
*707 PHY_14
*708 PHY_15
*709 PHY_16
*710 PHY_17
*711 PHY_18
*712 PHY_19
*713 PHY_2
*714 PHY_20
*715 PHY_21
*716 PHY_22
*717 PHY_23
*718 PHY_24
*719 PHY_25
*720 PHY_26
*721 PHY_27
*722 PHY_3
*723 PHY_4
*724 PHY_5
*725 PHY_6
*726 PHY_7
*727 PHY_8
*728 PHY_9
*729 TAP_28
*730 TAP_29
*731 TAP_30
*732 TAP_31
*733 TAP_32
*734 TAP_33
*735 TAP_34
*736 TAP_35
*737 TAP_36
*738 TAP_37
*739 TAP_38
*740 TAP_39
*741 TAP_40
*742 TAP_41
*743 TAP_42
*744 TAP_43
*745 TAP_44
*746 TAP_45
*747 TAP_46
*748 TAP_47
*749 TAP_48
*750 TAP_49
*751 TAP_50
*752 TAP_51
*753 TAP_52
*754 TAP_53
*755 TAP_54
*756 TAP_55
*757 TAP_56
*758 TAP_57
*759 TAP_58
*760 TAP_59
*761 TAP_60
*762 TAP_61
*763 TAP_62
*764 TAP_63
*765 TAP_64
*766 TAP_65
*767 TAP_66
*768 TAP_67
*769 TAP_68
*770 TAP_69
*771 TAP_70
*772 TAP_71
*773 TAP_72
*774 TAP_73
*775 TAP_74
*776 TAP_75
*777 TAP_76
*778 TAP_77
*779 TAP_78
*780 TAP_79
*781 TAP_80
*782 TAP_81
*783 TAP_82
*784 TAP_83
*785 TAP_84
*786 TAP_85
*787 TAP_86
*788 TAP_87
*789 TAP_88
*790 TAP_89
*791 TAP_90
*792 TAP_91
*793 TAP_92
*794 TAP_93
*795 TAP_94
*796 TAP_95
*797 TAP_96
*798 TAP_97
*799 TAP_98
*800 TAP_99
*801 _00_
*802 _01_
*803 _02_
*804 _03_
*805 _04_
*806 _05_
*807 _06_
*808 _07_
*809 _08_
*810 _09_
*811 _10_
*812 _11_
*813 _12_
*814 _13_
*815 _14_
*816 _15_
*817 _16_
*818 _17_
*819 _18_
*820 _19_
*821 _20_
*822 _21_
*823 _22_
*824 _23_
*825 _24_
*826 _25_
*827 _26_
*828 _27_
*829 _28_
*830 _29_
*831 _30_
*832 _31_
*833 _32_
*834 _33_
*835 _34_
*836 _35_
*837 _36_
*838 _37_
*839 _38_
*840 _39_
*841 _40_
*842 _41_
*843 _42_
*844 _43_
*845 _44_
*846 _45_
*847 _46_
*848 _47_
*849 _48_
*850 _49_
*851 _50_
*852 _51_
*853 _52_
*854 _53_
*855 _54_
*856 _55_
*857 input1
*858 input10
*859 input11
*860 input12
*861 input13
*862 input14
*863 input15
*864 input16
*865 input17
*866 input18
*867 input19
*868 input2
*869 input20
*870 input21
*871 input22
*872 input23
*873 input24
*874 input25
*875 input26
*876 input27
*877 input28
*878 input29
*879 input3
*880 input30
*881 input31
*882 input32
*883 input33
*884 input34
*885 input35
*886 input36
*887 input37
*888 input38
*889 input39
*890 input4
*891 input40
*892 input41
*893 input42
*894 input43
*895 input44
*896 input45
*897 input46
*898 input47
*899 input48
*900 input49
*901 input5
*902 input50
*903 input51
*904 input52
*905 input53
*906 input54
*907 input55
*908 input56
*909 input57
*910 input6
*911 input7
*912 input8
*913 input9
*914 inst_clk_buf
*915 output100
*916 output101
*917 output102
*918 output103
*919 output104
*920 output105
*921 output106
*922 output107
*923 output108
*924 output109
*925 output110
*926 output111
*927 output112
*928 output113
*929 output114
*930 output58
*931 output59
*932 output60
*933 output61
*934 output62
*935 output63
*936 output64
*937 output65
*938 output66
*939 output67
*940 output68
*941 output69
*942 output70
*943 output71
*944 output72
*945 output73
*946 output74
*947 output75
*948 output76
*949 output77
*950 output78
*951 output79
*952 output80
*953 output81
*954 output82
*955 output83
*956 output84
*957 output85
*958 output86
*959 output87
*960 output88
*961 output89
*962 output90
*963 output91
*964 output92
*965 output93
*966 output94
*967 output95
*968 output96
*969 output97
*970 output98
*971 output99
*972 strobe_inbuf_0\._0_
*973 strobe_inbuf_1\._0_
*974 strobe_inbuf_10\._0_
*975 strobe_inbuf_11\._0_
*976 strobe_inbuf_12\._0_
*977 strobe_inbuf_13\._0_
*978 strobe_inbuf_14\._0_
*979 strobe_inbuf_15\._0_
*980 strobe_inbuf_16\._0_
*981 strobe_inbuf_17\._0_
*982 strobe_inbuf_18\._0_
*983 strobe_inbuf_19\._0_
*984 strobe_inbuf_2\._0_
*985 strobe_inbuf_3\._0_
*986 strobe_inbuf_4\._0_
*987 strobe_inbuf_5\._0_
*988 strobe_inbuf_6\._0_
*989 strobe_inbuf_7\._0_
*990 strobe_inbuf_8\._0_
*991 strobe_inbuf_9\._0_
*992 strobe_outbuf_0\._0_
*993 strobe_outbuf_1\._0_
*994 strobe_outbuf_10\._0_
*995 strobe_outbuf_11\._0_
*996 strobe_outbuf_12\._0_
*997 strobe_outbuf_13\._0_
*998 strobe_outbuf_14\._0_
*999 strobe_outbuf_15\._0_
*1000 strobe_outbuf_16\._0_
*1001 strobe_outbuf_17\._0_
*1002 strobe_outbuf_18\._0_
*1003 strobe_outbuf_19\._0_
*1004 strobe_outbuf_2\._0_
*1005 strobe_outbuf_3\._0_
*1006 strobe_outbuf_4\._0_
*1007 strobe_outbuf_5\._0_
*1008 strobe_outbuf_6\._0_
*1009 strobe_outbuf_7\._0_
*1010 strobe_outbuf_8\._0_
*1011 strobe_outbuf_9\._0_

*PORTS
FrameStrobe[0] I
FrameStrobe[10] I
FrameStrobe[11] I
FrameStrobe[12] I
FrameStrobe[13] I
FrameStrobe[14] I
FrameStrobe[15] I
FrameStrobe[16] I
FrameStrobe[17] I
FrameStrobe[18] I
FrameStrobe[19] I
FrameStrobe[1] I
FrameStrobe[2] I
FrameStrobe[3] I
FrameStrobe[4] I
FrameStrobe[5] I
FrameStrobe[6] I
FrameStrobe[7] I
FrameStrobe[8] I
FrameStrobe[9] I
FrameStrobe_O[0] O
FrameStrobe_O[10] O
FrameStrobe_O[11] O
FrameStrobe_O[12] O
FrameStrobe_O[13] O
FrameStrobe_O[14] O
FrameStrobe_O[15] O
FrameStrobe_O[16] O
FrameStrobe_O[17] O
FrameStrobe_O[18] O
FrameStrobe_O[19] O
FrameStrobe_O[1] O
FrameStrobe_O[2] O
FrameStrobe_O[3] O
FrameStrobe_O[4] O
FrameStrobe_O[5] O
FrameStrobe_O[6] O
FrameStrobe_O[7] O
FrameStrobe_O[8] O
FrameStrobe_O[9] O
N1END[0] I
N1END[1] I
N1END[2] I
N1END[3] I
N2END[0] I
N2END[1] I
N2END[2] I
N2END[3] I
N2END[4] I
N2END[5] I
N2END[6] I
N2END[7] I
N2MID[0] I
N2MID[1] I
N2MID[2] I
N2MID[3] I
N2MID[4] I
N2MID[5] I
N2MID[6] I
N2MID[7] I
N4END[0] I
N4END[10] I
N4END[11] I
N4END[12] I
N4END[13] I
N4END[14] I
N4END[15] I
N4END[1] I
N4END[2] I
N4END[3] I
N4END[4] I
N4END[5] I
N4END[6] I
N4END[7] I
N4END[8] I
N4END[9] I
S1BEG[0] O
S1BEG[1] O
S1BEG[2] O
S1BEG[3] O
S2BEG[0] O
S2BEG[1] O
S2BEG[2] O
S2BEG[3] O
S2BEG[4] O
S2BEG[5] O
S2BEG[6] O
S2BEG[7] O
S2BEGb[0] O
S2BEGb[1] O
S2BEGb[2] O
S2BEGb[3] O
S2BEGb[4] O
S2BEGb[5] O
S2BEGb[6] O
S2BEGb[7] O
S4BEG[0] O
S4BEG[10] O
S4BEG[11] O
S4BEG[12] O
S4BEG[13] O
S4BEG[14] O
S4BEG[15] O
S4BEG[1] O
S4BEG[2] O
S4BEG[3] O
S4BEG[4] O
S4BEG[5] O
S4BEG[6] O
S4BEG[7] O
S4BEG[8] O
S4BEG[9] O
UserCLK I
UserCLKo O

*D_NET *1 0.00350059
*CONN
*P FrameStrobe[0] I
*I *857:A I *D sky130_fd_sc_hd__clkbuf_1
*CAP
1 FrameStrobe[0] 0.00100214
2 *857:A 0
3 *1:19 0.00100214
4 *1:19 *12:17 0.000341306
5 *1:19 *18:21 5.24739e-05
6 *1:19 *19:23 0.000130799
7 *1:19 *101:8 8.30548e-05
8 *1:19 *113:15 2.46933e-05
9 *1:19 *139:16 0.000393281
10 *1:19 *176:20 0.000460313
11 *1:19 *176:26 1.03836e-05
*RES
1 FrameStrobe[0] *1:19 48.7464 
2 *1:19 *857:A 38 
*END

*D_NET *2 0.00314819
*CONN
*P FrameStrobe[10] I
*I *868:A I *D sky130_fd_sc_hd__buf_1
*CAP
1 FrameStrobe[10] 0.000655764
2 *868:A 0
3 *2:11 0.000655764
4 *2:11 *3:15 0
5 *2:11 *4:9 0
6 *2:11 *14:25 0.000180213
7 *2:11 *19:23 0.00015297
8 *2:11 *20:9 0.000906383
9 *2:11 *174:10 4.20735e-05
10 *2:11 *174:14 4.77461e-05
11 *2:11 *179:8 4.9662e-05
12 *2:11 *234:24 0
13 *2:11 *245:8 0.000341195
14 *2:11 *273:14 9.58714e-05
15 *2:11 *292:10 2.05503e-05
*RES
1 FrameStrobe[10] *2:11 32.5864 
2 *2:11 *868:A 23 
*END

*D_NET *3 0.00149411
*CONN
*P FrameStrobe[11] I
*I *879:A I *D sky130_fd_sc_hd__clkbuf_1
*CAP
1 FrameStrobe[11] 0.000446115
2 *879:A 0
3 *3:15 0.000446115
4 *3:15 *4:9 0.000106104
5 *3:15 *6:19 0.000225275
6 *3:15 *7:9 7.66188e-05
7 *3:15 *17:13 7.4416e-05
8 *3:15 *176:20 0.000119467
9 *3:15 *234:24 0
10 *2:11 *3:15 0
*RES
1 FrameStrobe[11] *3:15 41.31 
2 *3:15 *879:A 38 
*END

*D_NET *4 0.00192103
*CONN
*P FrameStrobe[12] I
*I *890:A I *D sky130_fd_sc_hd__buf_1
*CAP
1 FrameStrobe[12] 0.000413497
2 *890:A 0
3 *4:9 0.000413497
4 *4:9 *5:17 0.000134353
5 *4:9 *6:19 0.000348447
6 *4:9 *14:25 0
7 *4:9 *17:13 0.000271401
8 *4:9 *175:12 2.98653e-05
9 *4:9 *229:16 0
10 *4:9 *234:24 0.000203863
11 *2:11 *4:9 0
12 *3:15 *4:9 0.000106104
*RES
1 FrameStrobe[12] *4:9 27.8429 
2 *4:9 *890:A 23 
*END

*D_NET *5 0.002883
*CONN
*P FrameStrobe[13] I
*I *901:A I *D sky130_fd_sc_hd__clkbuf_1
*CAP
1 FrameStrobe[13] 0.000570477
2 *901:A 0
3 *5:17 0.000570477
4 *5:17 *978:A 5.3304e-05
5 *5:17 *6:19 0.000509267
6 *5:17 *17:13 0.000228336
7 *5:17 *176:8 8.85189e-05
8 *5:17 *190:14 0.000461879
9 *5:17 *201:12 1.97779e-05
10 *5:17 *201:16 3.41998e-06
11 *5:17 *229:16 1.62615e-05
12 *5:17 *229:22 5.31385e-05
13 *5:17 *234:10 0.000100175
14 *5:17 *234:24 5.77061e-05
15 *5:17 *273:14 1.59094e-05
16 *5:17 *298:8 0
17 *4:9 *5:17 0.000134353
*RES
1 FrameStrobe[13] *5:17 33.0214 
2 *5:17 *901:A 23 
*END

*D_NET *6 0.00268387
*CONN
*P FrameStrobe[14] I
*I *910:A I *D sky130_fd_sc_hd__clkbuf_1
*CAP
1 FrameStrobe[14] 0.000530562
2 *910:A 8.38575e-05
3 *6:19 0.000614419
4 *910:A *9:11 0.000137651
5 *910:A *292:10 4.57742e-05
6 *6:19 *7:9 8.91369e-05
7 *6:19 *176:8 4.334e-05
8 *6:19 *190:14 5.61419e-05
9 *6:19 *278:10 0
10 *3:15 *6:19 0.000225275
11 *4:9 *6:19 0.000348447
12 *5:17 *6:19 0.000509267
*RES
1 FrameStrobe[14] *6:19 44.9764 
2 *6:19 *910:A 40.0714 
*END

*D_NET *7 0.00335402
*CONN
*P FrameStrobe[15] I
*I *911:A I *D sky130_fd_sc_hd__clkbuf_1
*CAP
1 FrameStrobe[15] 0.000472335
2 *911:A 0
3 *7:9 0.000472335
4 *7:9 *8:11 0.00150547
5 *7:9 *11:11 0.000139346
6 *7:9 *190:14 0
7 *7:9 *190:30 0.000354769
8 *7:9 *212:14 0.000244002
9 *3:15 *7:9 7.66188e-05
10 *6:19 *7:9 8.91369e-05
*RES
1 FrameStrobe[15] *7:9 34.43 
2 *7:9 *911:A 23 
*END

*D_NET *8 0.00495072
*CONN
*P FrameStrobe[16] I
*I *912:A I *D sky130_fd_sc_hd__clkbuf_1
*CAP
1 FrameStrobe[16] 0.000982836
2 *912:A 0
3 *8:19 0.000111108
4 *8:11 0.00109394
5 *8:11 *9:11 0
6 *8:11 *10:9 0.000518506
7 *8:11 *11:11 8.71888e-05
8 *8:11 *18:21 5.3304e-05
9 *8:11 *19:23 6.9805e-05
10 *8:11 *190:30 1.12487e-05
11 *8:11 *234:10 2.43944e-05
12 *8:19 *154:14 0.000216721
13 *8:19 *174:14 0.000221184
14 *8:19 *273:14 5.50049e-05
15 *7:9 *8:11 0.00150547
*RES
1 FrameStrobe[16] *8:11 42.0736 
2 *8:11 *8:19 33.5836 
3 *8:19 *912:A 23 
*END

*D_NET *9 0.00340258
*CONN
*P FrameStrobe[17] I
*I *913:A I *D sky130_fd_sc_hd__clkbuf_1
*CAP
1 FrameStrobe[17] 0.00137269
2 *913:A 0
3 *9:11 0.00137269
4 *9:11 *997:A 7.15126e-05
5 *9:11 *10:9 0.00033238
6 *9:11 *190:22 2.43944e-05
7 *9:11 *201:12 2.03764e-06
8 *9:11 *229:16 7.37286e-05
9 *9:11 *292:10 1.54983e-05
10 *910:A *9:11 0.000137651
11 *8:11 *9:11 0
*RES
1 FrameStrobe[17] *9:11 38.4693 
2 *9:11 *913:A 23 
*END

*D_NET *10 0.00411762
*CONN
*P FrameStrobe[18] I
*I *858:A I *D sky130_fd_sc_hd__clkbuf_1
*CAP
1 FrameStrobe[18] 0.000876551
2 *858:A 0
3 *10:15 0.000142922
4 *10:9 0.00101947
5 *10:9 *11:11 0.000635247
6 *10:9 *165:10 0.000266265
7 *10:15 *154:14 6.43253e-05
8 *10:15 *223:8 1.83564e-05
9 *10:15 *229:22 0.000243596
10 *8:11 *10:9 0.000518506
11 *9:11 *10:9 0.00033238
*RES
1 FrameStrobe[18] *10:9 43.2336 
2 *10:9 *10:15 33.3143 
3 *10:15 *858:A 23 
*END

*D_NET *11 0.00295171
*CONN
*P FrameStrobe[19] I
*I *859:A I *D sky130_fd_sc_hd__clkbuf_1
*CAP
1 FrameStrobe[19] 0.00101746
2 *859:A 0
3 *11:11 0.00101746
4 *11:11 *19:23 0
5 *11:11 *234:10 5.50106e-05
6 *7:9 *11:11 0.000139346
7 *8:11 *11:11 8.71888e-05
8 *10:9 *11:11 0.000635247
*RES
1 FrameStrobe[19] *11:11 41.7214 
2 *11:11 *859:A 23 
*END

*D_NET *12 0.00351558
*CONN
*P FrameStrobe[1] I
*I *860:A I *D sky130_fd_sc_hd__clkbuf_1
*CAP
1 FrameStrobe[1] 0.000724694
2 *860:A 0
3 *12:17 0.000724694
4 *12:17 *692:A 9.43591e-05
5 *12:17 *918:A 0.000138718
6 *12:17 *919:A 0.00012103
7 *12:17 *13:15 0
8 *12:17 *15:17 8.57335e-05
9 *12:17 *101:8 0.00013406
10 *12:17 *103:8 5.97178e-05
11 *12:17 *113:15 0
12 *12:17 *142:10 0.000136697
13 *12:17 *153:18 0
14 *12:17 *171:10 0.000572729
15 *12:17 *203:26 0
16 *12:17 *211:28 5.56356e-05
17 *12:17 *215:30 0.000210013
18 *12:17 *220:10 0.000102093
19 *12:17 *295:10 1.40958e-05
20 *1:19 *12:17 0.000341306
*RES
1 FrameStrobe[1] *12:17 36.4393 
2 *12:17 *860:A 23 
*END

*D_NET *13 0.00290825
*CONN
*P FrameStrobe[2] I
*I *861:A I *D sky130_fd_sc_hd__clkbuf_1
*CAP
1 FrameStrobe[2] 0.000551609
2 *861:A 2.77218e-05
3 *13:15 0.000579331
4 *861:A *16:17 2.64616e-05
5 *861:A *274:10 5.3304e-05
6 *13:15 *14:13 0.000215538
7 *13:15 *14:25 0.000378397
8 *13:15 *15:17 0
9 *13:15 *17:13 0.000354127
10 *13:15 *19:23 0.000201776
11 *13:15 *20:9 0.000232653
12 *13:15 *176:20 1.41129e-05
13 *13:15 *176:26 0.000224605
14 *13:15 *203:26 3.33048e-05
15 *13:15 *215:30 1.53128e-05
16 *12:17 *13:15 0
*RES
1 FrameStrobe[2] *13:15 46.5507 
2 *13:15 *861:A 38.6214 
*END

*D_NET *14 0.00298327
*CONN
*P FrameStrobe[3] I
*I *862:A I *D sky130_fd_sc_hd__buf_1
*CAP
1 FrameStrobe[3] 0.000247297
2 *862:A 2.77218e-05
3 *14:25 0.000411293
4 *14:13 0.000630868
5 *862:A *16:17 2.64616e-05
6 *862:A *274:10 5.3304e-05
7 *14:13 *15:17 0.000142808
8 *14:13 *16:17 4.35691e-05
9 *14:25 *17:13 4.2062e-05
10 *14:25 *173:12 2.26497e-05
11 *14:25 *176:20 0.000561091
12 *2:11 *14:25 0.000180213
13 *4:9 *14:25 0
14 *13:15 *14:13 0.000215538
15 *13:15 *14:25 0.000378397
*RES
1 FrameStrobe[3] *14:13 36.4421 
2 *14:13 *14:25 40.5436 
3 *14:25 *862:A 38.6214 
*END

*D_NET *15 0.00333958
*CONN
*P FrameStrobe[4] I
*I *863:A I *D sky130_fd_sc_hd__buf_1
*CAP
1 FrameStrobe[4] 0.00104058
2 *863:A 0
3 *15:17 0.00104058
4 *15:17 *692:A 0.000176608
5 *15:17 *981:A 0.000101778
6 *15:17 *1000:A 5.81287e-05
7 *15:17 *16:17 0
8 *15:17 *139:8 0.000101536
9 *15:17 *171:10 0.000399409
10 *15:17 *203:26 9.16507e-05
11 *15:17 *220:10 0
12 *15:17 *294:10 8.62783e-05
13 *15:17 *295:10 1.44752e-05
14 *12:17 *15:17 8.57335e-05
15 *13:15 *15:17 0
16 *14:13 *15:17 0.000142808
*RES
1 FrameStrobe[4] *15:17 33.8086 
2 *15:17 *863:A 23 
*END

*D_NET *16 0.00268953
*CONN
*P FrameStrobe[5] I
*I *864:A I *D sky130_fd_sc_hd__buf_1
*CAP
1 FrameStrobe[5] 0.000937038
2 *864:A 0
3 *16:17 0.000937038
4 *16:17 *17:13 0.000241985
5 *16:17 *18:21 6.12496e-06
6 *16:17 *143:18 3.38095e-05
7 *16:17 *158:14 5.50106e-05
8 *16:17 *172:14 0.000223692
9 *16:17 *175:12 2.45549e-06
10 *16:17 *190:14 0
11 *16:17 *274:10 0.000155887
12 *861:A *16:17 2.64616e-05
13 *862:A *16:17 2.64616e-05
14 *14:13 *16:17 4.35691e-05
15 *15:17 *16:17 0
*RES
1 FrameStrobe[5] *16:17 32.7729 
2 *16:17 *864:A 23 
*END

*D_NET *17 0.00245484
*CONN
*P FrameStrobe[6] I
*I *865:A I *D sky130_fd_sc_hd__buf_1
*CAP
1 FrameStrobe[6] 0.000549329
2 *865:A 0
3 *17:13 0.000549329
4 *17:13 *18:21 8.66515e-05
5 *17:13 *176:20 5.72091e-05
6 *3:15 *17:13 7.4416e-05
7 *4:9 *17:13 0.000271401
8 *5:17 *17:13 0.000228336
9 *13:15 *17:13 0.000354127
10 *14:25 *17:13 4.2062e-05
11 *16:17 *17:13 0.000241985
*RES
1 FrameStrobe[6] *17:13 45.9293 
2 *17:13 *865:A 38 
*END

*D_NET *18 0.00391796
*CONN
*P FrameStrobe[7] I
*I *866:A I *D sky130_fd_sc_hd__buf_1
*CAP
1 FrameStrobe[7] 0.00102027
2 *866:A 0
3 *18:21 0.00102027
4 *18:21 *19:23 0.000950719
5 *18:21 *113:21 9.20311e-06
6 *18:21 *143:18 0.000161615
7 *18:21 *172:14 0
8 *18:21 *174:14 0
9 *18:21 *220:20 0.000202554
10 *18:21 *230:12 0.000354769
11 *1:19 *18:21 5.24739e-05
12 *8:11 *18:21 5.3304e-05
13 *16:17 *18:21 6.12496e-06
14 *17:13 *18:21 8.66515e-05
*RES
1 FrameStrobe[7] *18:21 38.635 
2 *18:21 *866:A 23 
*END

*D_NET *19 0.00392583
*CONN
*P FrameStrobe[8] I
*I *867:A I *D sky130_fd_sc_hd__buf_1
*CAP
1 FrameStrobe[8] 0.000986176
2 *867:A 0
3 *19:23 0.000986176
4 *19:23 *20:9 0.000263949
5 *19:23 *174:14 7.45278e-05
6 *19:23 *256:8 8.62876e-05
7 *19:23 *292:10 2.26497e-05
8 *1:19 *19:23 0.000130799
9 *2:11 *19:23 0.00015297
10 *8:11 *19:23 6.9805e-05
11 *11:11 *19:23 0
12 *13:15 *19:23 0.000201776
13 *18:21 *19:23 0.000950719
*RES
1 FrameStrobe[8] *19:23 38.78 
2 *19:23 *867:A 23 
*END
