*SPEF "ieee 1481-1999"
*DESIGN "N_term_single2"
*DATE "11:11:11 Fri 11 11, 1111"
*VENDOR "OpenRCX"
*PROGRAM "Parallel Extraction"
*VERSION "1.0"
*DESIGN_FLOW "NAME_SCOPE LOCAL" "PIN_CAP NONE"
*DIVIDER /
*DELIMITER :
*BUS_DELIMITER []
*T_UNIT 1 NS
*C_UNIT 1 PF
*R_UNIT 1 OHM
*L_UNIT 1 HENRY

*NAME_MAP
*1 FrameStrobe[0]
*2 FrameStrobe[10]
*3 FrameStrobe[11]
*4 FrameStrobe[12]
*5 FrameStrobe[13]
*6 FrameStrobe[14]
*7 FrameStrobe[15]
*8 FrameStrobe[16]
*9 FrameStrobe[17]
*10 FrameStrobe[18]
*11 FrameStrobe[19]
*12 FrameStrobe[1]
*13 FrameStrobe[2]
*14 FrameStrobe[3]
*15 FrameStrobe[4]
*16 FrameStrobe[5]
*17 FrameStrobe[6]
*18 FrameStrobe[7]
*19 FrameStrobe[8]
*20 FrameStrobe[9]
*21 FrameStrobe_O[0]
*22 FrameStrobe_O[10]
*23 FrameStrobe_O[11]
*24 FrameStrobe_O[12]
*25 FrameStrobe_O[13]
*26 FrameStrobe_O[14]
*27 FrameStrobe_O[15]
*28 FrameStrobe_O[16]
*29 FrameStrobe_O[17]
*30 FrameStrobe_O[18]
*31 FrameStrobe_O[19]
*32 FrameStrobe_O[1]
*33 FrameStrobe_O[2]
*34 FrameStrobe_O[3]
*35 FrameStrobe_O[4]
*36 FrameStrobe_O[5]
*37 FrameStrobe_O[6]
*38 FrameStrobe_O[7]
*39 FrameStrobe_O[8]
*40 FrameStrobe_O[9]
*41 N1END[0]
*42 N1END[1]
*43 N1END[2]
*44 N1END[3]
*45 N2END[0]
*46 N2END[1]
*47 N2END[2]
*48 N2END[3]
*49 N2END[4]
*50 N2END[5]
*51 N2END[6]
*52 N2END[7]
*53 N2MID[0]
*54 N2MID[1]
*55 N2MID[2]
*56 N2MID[3]
*57 N2MID[4]
*58 N2MID[5]
*59 N2MID[6]
*60 N2MID[7]
*61 N4END[0]
*62 N4END[10]
*63 N4END[11]
*64 N4END[12]
*65 N4END[13]
*66 N4END[14]
*67 N4END[15]
*68 N4END[1]
*69 N4END[2]
*70 N4END[3]
*71 N4END[4]
*72 N4END[5]
*73 N4END[6]
*74 N4END[7]
*75 N4END[8]
*76 N4END[9]
*77 NN4END[0]
*78 NN4END[10]
*79 NN4END[11]
*80 NN4END[12]
*81 NN4END[13]
*82 NN4END[14]
*83 NN4END[15]
*84 NN4END[1]
*85 NN4END[2]
*86 NN4END[3]
*87 NN4END[4]
*88 NN4END[5]
*89 NN4END[6]
*90 NN4END[7]
*91 NN4END[8]
*92 NN4END[9]
*93 S1BEG[0]
*94 S1BEG[1]
*95 S1BEG[2]
*96 S1BEG[3]
*97 S2BEG[0]
*98 S2BEG[1]
*99 S2BEG[2]
*100 S2BEG[3]
*101 S2BEG[4]
*102 S2BEG[5]
*103 S2BEG[6]
*104 S2BEG[7]
*105 S2BEGb[0]
*106 S2BEGb[1]
*107 S2BEGb[2]
*108 S2BEGb[3]
*109 S2BEGb[4]
*110 S2BEGb[5]
*111 S2BEGb[6]
*112 S2BEGb[7]
*113 S4BEG[0]
*114 S4BEG[10]
*115 S4BEG[11]
*116 S4BEG[12]
*117 S4BEG[13]
*118 S4BEG[14]
*119 S4BEG[15]
*120 S4BEG[1]
*121 S4BEG[2]
*122 S4BEG[3]
*123 S4BEG[4]
*124 S4BEG[5]
*125 S4BEG[6]
*126 S4BEG[7]
*127 S4BEG[8]
*128 S4BEG[9]
*129 SS4BEG[0]
*130 SS4BEG[10]
*131 SS4BEG[11]
*132 SS4BEG[12]
*133 SS4BEG[13]
*134 SS4BEG[14]
*135 SS4BEG[15]
*136 SS4BEG[1]
*137 SS4BEG[2]
*138 SS4BEG[3]
*139 SS4BEG[4]
*140 SS4BEG[5]
*141 SS4BEG[6]
*142 SS4BEG[7]
*143 SS4BEG[8]
*144 SS4BEG[9]
*145 UserCLK
*146 UserCLKo
*149 FrameStrobe_O_i\[0\]
*150 FrameStrobe_O_i\[10\]
*151 FrameStrobe_O_i\[11\]
*152 FrameStrobe_O_i\[12\]
*153 FrameStrobe_O_i\[13\]
*154 FrameStrobe_O_i\[14\]
*155 FrameStrobe_O_i\[15\]
*156 FrameStrobe_O_i\[16\]
*157 FrameStrobe_O_i\[17\]
*158 FrameStrobe_O_i\[18\]
*159 FrameStrobe_O_i\[19\]
*160 FrameStrobe_O_i\[1\]
*161 FrameStrobe_O_i\[2\]
*162 FrameStrobe_O_i\[3\]
*163 FrameStrobe_O_i\[4\]
*164 FrameStrobe_O_i\[5\]
*165 FrameStrobe_O_i\[6\]
*166 FrameStrobe_O_i\[7\]
*167 FrameStrobe_O_i\[8\]
*168 FrameStrobe_O_i\[9\]
*169 net1
*170 net10
*171 net100
*172 net101
*173 net102
*174 net103
*175 net104
*176 net105
*177 net106
*178 net107
*179 net108
*180 net109
*181 net11
*182 net110
*183 net111
*184 net112
*185 net113
*186 net114
*187 net115
*188 net116
*189 net117
*190 net118
*191 net119
*192 net12
*193 net120
*194 net121
*195 net122
*196 net123
*197 net124
*198 net125
*199 net126
*200 net127
*201 net128
*202 net129
*203 net13
*204 net130
*205 net131
*206 net132
*207 net133
*208 net134
*209 net135
*210 net136
*211 net137
*212 net138
*213 net139
*214 net14
*215 net140
*216 net141
*217 net142
*218 net143
*219 net144
*220 net145
*221 net146
*222 net15
*223 net16
*224 net17
*225 net18
*226 net19
*227 net2
*228 net20
*229 net21
*230 net22
*231 net23
*232 net24
*233 net25
*234 net26
*235 net27
*236 net28
*237 net29
*238 net3
*239 net30
*240 net31
*241 net32
*242 net33
*243 net34
*244 net35
*245 net36
*246 net37
*247 net38
*248 net39
*249 net4
*250 net40
*251 net41
*252 net42
*253 net43
*254 net44
*255 net45
*256 net46
*257 net47
*258 net48
*259 net49
*260 net5
*261 net50
*262 net51
*263 net52
*264 net53
*265 net54
*266 net55
*267 net56
*268 net57
*269 net58
*270 net59
*271 net6
*272 net60
*273 net61
*274 net62
*275 net63
*276 net64
*277 net65
*278 net66
*279 net67
*280 net68
*281 net69
*282 net7
*283 net70
*284 net71
*285 net72
*286 net73
*287 net74
*288 net75
*289 net76
*290 net77
*291 net78
*292 net79
*293 net8
*294 net80
*295 net81
*296 net82
*297 net83
*298 net84
*299 net85
*300 net86
*301 net87
*302 net88
*303 net89
*304 net9
*305 net90
*306 net91
*307 net92
*308 net93
*309 net94
*310 net95
*311 net96
*312 net97
*313 net98
*314 net99
*315 ANTENNA_1
*316 FILLER_0_0_100
*317 FILLER_0_0_104
*318 FILLER_0_0_108
*319 FILLER_0_0_116
*320 FILLER_0_0_12
*321 FILLER_0_0_120
*322 FILLER_0_0_124
*323 FILLER_0_0_128
*324 FILLER_0_0_132
*325 FILLER_0_0_136
*326 FILLER_0_0_144
*327 FILLER_0_0_148
*328 FILLER_0_0_152
*329 FILLER_0_0_16
*330 FILLER_0_0_20
*331 FILLER_0_0_203
*332 FILLER_0_0_214
*333 FILLER_0_0_234
*334 FILLER_0_0_246
*335 FILLER_0_0_271
*336 FILLER_0_0_279
*337 FILLER_0_0_299
*338 FILLER_0_0_3
*339 FILLER_0_0_307
*340 FILLER_0_0_315
*341 FILLER_0_0_335
*342 FILLER_0_0_361
*343 FILLER_0_0_389
*344 FILLER_0_0_39
*345 FILLER_0_0_393
*346 FILLER_0_0_397
*347 FILLER_0_0_436
*348 FILLER_0_0_44
*349 FILLER_0_0_464
*350 FILLER_0_0_468
*351 FILLER_0_0_472
*352 FILLER_0_0_48
*353 FILLER_0_0_480
*354 FILLER_0_0_484
*355 FILLER_0_0_488
*356 FILLER_0_0_492
*357 FILLER_0_0_52
*358 FILLER_0_0_60
*359 FILLER_0_0_64
*360 FILLER_0_0_68
*361 FILLER_0_0_72
*362 FILLER_0_0_76
*363 FILLER_0_0_8
*364 FILLER_0_0_80
*365 FILLER_0_0_88
*366 FILLER_0_0_92
*367 FILLER_0_0_96
*368 FILLER_0_10_109
*369 FILLER_0_10_121
*370 FILLER_0_10_133
*371 FILLER_0_10_139
*372 FILLER_0_10_141
*373 FILLER_0_10_15
*374 FILLER_0_10_153
*375 FILLER_0_10_165
*376 FILLER_0_10_177
*377 FILLER_0_10_189
*378 FILLER_0_10_195
*379 FILLER_0_10_197
*380 FILLER_0_10_209
*381 FILLER_0_10_221
*382 FILLER_0_10_233
*383 FILLER_0_10_245
*384 FILLER_0_10_251
*385 FILLER_0_10_253
*386 FILLER_0_10_265
*387 FILLER_0_10_27
*388 FILLER_0_10_277
*389 FILLER_0_10_289
*390 FILLER_0_10_29
*391 FILLER_0_10_3
*392 FILLER_0_10_301
*393 FILLER_0_10_307
*394 FILLER_0_10_309
*395 FILLER_0_10_321
*396 FILLER_0_10_333
*397 FILLER_0_10_345
*398 FILLER_0_10_357
*399 FILLER_0_10_363
*400 FILLER_0_10_365
*401 FILLER_0_10_377
*402 FILLER_0_10_389
*403 FILLER_0_10_401
*404 FILLER_0_10_41
*405 FILLER_0_10_413
*406 FILLER_0_10_419
*407 FILLER_0_10_421
*408 FILLER_0_10_433
*409 FILLER_0_10_445
*410 FILLER_0_10_457
*411 FILLER_0_10_469
*412 FILLER_0_10_475
*413 FILLER_0_10_477
*414 FILLER_0_10_489
*415 FILLER_0_10_493
*416 FILLER_0_10_53
*417 FILLER_0_10_65
*418 FILLER_0_10_77
*419 FILLER_0_10_83
*420 FILLER_0_10_85
*421 FILLER_0_10_97
*422 FILLER_0_11_105
*423 FILLER_0_11_111
*424 FILLER_0_11_113
*425 FILLER_0_11_125
*426 FILLER_0_11_137
*427 FILLER_0_11_149
*428 FILLER_0_11_15
*429 FILLER_0_11_161
*430 FILLER_0_11_167
*431 FILLER_0_11_169
*432 FILLER_0_11_181
*433 FILLER_0_11_193
*434 FILLER_0_11_205
*435 FILLER_0_11_217
*436 FILLER_0_11_223
*437 FILLER_0_11_225
*438 FILLER_0_11_237
*439 FILLER_0_11_249
*440 FILLER_0_11_261
*441 FILLER_0_11_27
*442 FILLER_0_11_273
*443 FILLER_0_11_279
*444 FILLER_0_11_281
*445 FILLER_0_11_293
*446 FILLER_0_11_3
*447 FILLER_0_11_305
*448 FILLER_0_11_317
*449 FILLER_0_11_329
*450 FILLER_0_11_335
*451 FILLER_0_11_337
*452 FILLER_0_11_349
*453 FILLER_0_11_361
*454 FILLER_0_11_373
*455 FILLER_0_11_385
*456 FILLER_0_11_39
*457 FILLER_0_11_391
*458 FILLER_0_11_393
*459 FILLER_0_11_405
*460 FILLER_0_11_417
*461 FILLER_0_11_429
*462 FILLER_0_11_441
*463 FILLER_0_11_447
*464 FILLER_0_11_449
*465 FILLER_0_11_461
*466 FILLER_0_11_473
*467 FILLER_0_11_485
*468 FILLER_0_11_493
*469 FILLER_0_11_51
*470 FILLER_0_11_55
*471 FILLER_0_11_57
*472 FILLER_0_11_69
*473 FILLER_0_11_81
*474 FILLER_0_11_93
*475 FILLER_0_12_109
*476 FILLER_0_12_121
*477 FILLER_0_12_133
*478 FILLER_0_12_139
*479 FILLER_0_12_141
*480 FILLER_0_12_15
*481 FILLER_0_12_153
*482 FILLER_0_12_165
*483 FILLER_0_12_177
*484 FILLER_0_12_189
*485 FILLER_0_12_195
*486 FILLER_0_12_197
*487 FILLER_0_12_209
*488 FILLER_0_12_221
*489 FILLER_0_12_233
*490 FILLER_0_12_245
*491 FILLER_0_12_251
*492 FILLER_0_12_253
*493 FILLER_0_12_265
*494 FILLER_0_12_27
*495 FILLER_0_12_277
*496 FILLER_0_12_289
*497 FILLER_0_12_29
*498 FILLER_0_12_3
*499 FILLER_0_12_301
*500 FILLER_0_12_307
*501 FILLER_0_12_309
*502 FILLER_0_12_321
*503 FILLER_0_12_333
*504 FILLER_0_12_345
*505 FILLER_0_12_357
*506 FILLER_0_12_363
*507 FILLER_0_12_365
*508 FILLER_0_12_377
*509 FILLER_0_12_389
*510 FILLER_0_12_401
*511 FILLER_0_12_41
*512 FILLER_0_12_413
*513 FILLER_0_12_419
*514 FILLER_0_12_421
*515 FILLER_0_12_433
*516 FILLER_0_12_445
*517 FILLER_0_12_457
*518 FILLER_0_12_469
*519 FILLER_0_12_475
*520 FILLER_0_12_477
*521 FILLER_0_12_489
*522 FILLER_0_12_493
*523 FILLER_0_12_53
*524 FILLER_0_12_65
*525 FILLER_0_12_77
*526 FILLER_0_12_83
*527 FILLER_0_12_85
*528 FILLER_0_12_97
*529 FILLER_0_13_101
*530 FILLER_0_13_109
*531 FILLER_0_13_113
*532 FILLER_0_13_125
*533 FILLER_0_13_13
*534 FILLER_0_13_133
*535 FILLER_0_13_139
*536 FILLER_0_13_141
*537 FILLER_0_13_149
*538 FILLER_0_13_157
*539 FILLER_0_13_165
*540 FILLER_0_13_169
*541 FILLER_0_13_181
*542 FILLER_0_13_193
*543 FILLER_0_13_197
*544 FILLER_0_13_205
*545 FILLER_0_13_217
*546 FILLER_0_13_223
*547 FILLER_0_13_229
*548 FILLER_0_13_241
*549 FILLER_0_13_249
*550 FILLER_0_13_25
*551 FILLER_0_13_257
*552 FILLER_0_13_269
*553 FILLER_0_13_277
*554 FILLER_0_13_281
*555 FILLER_0_13_29
*556 FILLER_0_13_293
*557 FILLER_0_13_3
*558 FILLER_0_13_301
*559 FILLER_0_13_307
*560 FILLER_0_13_309
*561 FILLER_0_13_325
*562 FILLER_0_13_333
*563 FILLER_0_13_337
*564 FILLER_0_13_349
*565 FILLER_0_13_361
*566 FILLER_0_13_365
*567 FILLER_0_13_37
*568 FILLER_0_13_373
*569 FILLER_0_13_385
*570 FILLER_0_13_391
*571 FILLER_0_13_399
*572 FILLER_0_13_411
*573 FILLER_0_13_419
*574 FILLER_0_13_425
*575 FILLER_0_13_437
*576 FILLER_0_13_445
*577 FILLER_0_13_449
*578 FILLER_0_13_461
*579 FILLER_0_13_469
*580 FILLER_0_13_475
*581 FILLER_0_13_477
*582 FILLER_0_13_49
*583 FILLER_0_13_493
*584 FILLER_0_13_55
*585 FILLER_0_13_61
*586 FILLER_0_13_73
*587 FILLER_0_13_81
*588 FILLER_0_13_89
*589 FILLER_0_1_105
*590 FILLER_0_1_111
*591 FILLER_0_1_113
*592 FILLER_0_1_125
*593 FILLER_0_1_137
*594 FILLER_0_1_149
*595 FILLER_0_1_157
*596 FILLER_0_1_169
*597 FILLER_0_1_18
*598 FILLER_0_1_216
*599 FILLER_0_1_225
*600 FILLER_0_1_236
*601 FILLER_0_1_248
*602 FILLER_0_1_258
*603 FILLER_0_1_268
*604 FILLER_0_1_279
*605 FILLER_0_1_296
*606 FILLER_0_1_30
*607 FILLER_0_1_301
*608 FILLER_0_1_312
*609 FILLER_0_1_323
*610 FILLER_0_1_335
*611 FILLER_0_1_343
*612 FILLER_0_1_352
*613 FILLER_0_1_36
*614 FILLER_0_1_366
*615 FILLER_0_1_372
*616 FILLER_0_1_377
*617 FILLER_0_1_387
*618 FILLER_0_1_391
*619 FILLER_0_1_399
*620 FILLER_0_1_40
*621 FILLER_0_1_407
*622 FILLER_0_1_415
*623 FILLER_0_1_427
*624 FILLER_0_1_440
*625 FILLER_0_1_452
*626 FILLER_0_1_464
*627 FILLER_0_1_476
*628 FILLER_0_1_487
*629 FILLER_0_1_52
*630 FILLER_0_1_57
*631 FILLER_0_1_6
*632 FILLER_0_1_69
*633 FILLER_0_1_81
*634 FILLER_0_1_93
*635 FILLER_0_2_109
*636 FILLER_0_2_121
*637 FILLER_0_2_133
*638 FILLER_0_2_139
*639 FILLER_0_2_141
*640 FILLER_0_2_15
*641 FILLER_0_2_153
*642 FILLER_0_2_165
*643 FILLER_0_2_177
*644 FILLER_0_2_184
*645 FILLER_0_2_197
*646 FILLER_0_2_202
*647 FILLER_0_2_216
*648 FILLER_0_2_220
*649 FILLER_0_2_224
*650 FILLER_0_2_231
*651 FILLER_0_2_243
*652 FILLER_0_2_250
*653 FILLER_0_2_253
*654 FILLER_0_2_27
*655 FILLER_0_2_271
*656 FILLER_0_2_275
*657 FILLER_0_2_279
*658 FILLER_0_2_286
*659 FILLER_0_2_29
*660 FILLER_0_2_299
*661 FILLER_0_2_3
*662 FILLER_0_2_303
*663 FILLER_0_2_307
*664 FILLER_0_2_309
*665 FILLER_0_2_318
*666 FILLER_0_2_331
*667 FILLER_0_2_340
*668 FILLER_0_2_346
*669 FILLER_0_2_351
*670 FILLER_0_2_363
*671 FILLER_0_2_365
*672 FILLER_0_2_371
*673 FILLER_0_2_375
*674 FILLER_0_2_387
*675 FILLER_0_2_395
*676 FILLER_0_2_402
*677 FILLER_0_2_409
*678 FILLER_0_2_41
*679 FILLER_0_2_417
*680 FILLER_0_2_421
*681 FILLER_0_2_433
*682 FILLER_0_2_448
*683 FILLER_0_2_460
*684 FILLER_0_2_475
*685 FILLER_0_2_480
*686 FILLER_0_2_487
*687 FILLER_0_2_493
*688 FILLER_0_2_53
*689 FILLER_0_2_65
*690 FILLER_0_2_77
*691 FILLER_0_2_83
*692 FILLER_0_2_85
*693 FILLER_0_2_97
*694 FILLER_0_3_105
*695 FILLER_0_3_111
*696 FILLER_0_3_113
*697 FILLER_0_3_125
*698 FILLER_0_3_137
*699 FILLER_0_3_149
*700 FILLER_0_3_15
*701 FILLER_0_3_161
*702 FILLER_0_3_167
*703 FILLER_0_3_169
*704 FILLER_0_3_181
*705 FILLER_0_3_193
*706 FILLER_0_3_205
*707 FILLER_0_3_217
*708 FILLER_0_3_223
*709 FILLER_0_3_225
*710 FILLER_0_3_237
*711 FILLER_0_3_249
*712 FILLER_0_3_261
*713 FILLER_0_3_27
*714 FILLER_0_3_273
*715 FILLER_0_3_279
*716 FILLER_0_3_281
*717 FILLER_0_3_293
*718 FILLER_0_3_3
*719 FILLER_0_3_305
*720 FILLER_0_3_317
*721 FILLER_0_3_329
*722 FILLER_0_3_335
*723 FILLER_0_3_337
*724 FILLER_0_3_349
*725 FILLER_0_3_361
*726 FILLER_0_3_373
*727 FILLER_0_3_385
*728 FILLER_0_3_39
*729 FILLER_0_3_391
*730 FILLER_0_3_393
*731 FILLER_0_3_405
*732 FILLER_0_3_417
*733 FILLER_0_3_429
*734 FILLER_0_3_441
*735 FILLER_0_3_447
*736 FILLER_0_3_449
*737 FILLER_0_3_461
*738 FILLER_0_3_473
*739 FILLER_0_3_485
*740 FILLER_0_3_493
*741 FILLER_0_3_51
*742 FILLER_0_3_55
*743 FILLER_0_3_57
*744 FILLER_0_3_69
*745 FILLER_0_3_81
*746 FILLER_0_3_93
*747 FILLER_0_4_109
*748 FILLER_0_4_121
*749 FILLER_0_4_133
*750 FILLER_0_4_139
*751 FILLER_0_4_141
*752 FILLER_0_4_15
*753 FILLER_0_4_153
*754 FILLER_0_4_165
*755 FILLER_0_4_177
*756 FILLER_0_4_189
*757 FILLER_0_4_195
*758 FILLER_0_4_197
*759 FILLER_0_4_209
*760 FILLER_0_4_221
*761 FILLER_0_4_233
*762 FILLER_0_4_245
*763 FILLER_0_4_251
*764 FILLER_0_4_253
*765 FILLER_0_4_265
*766 FILLER_0_4_27
*767 FILLER_0_4_277
*768 FILLER_0_4_289
*769 FILLER_0_4_29
*770 FILLER_0_4_3
*771 FILLER_0_4_301
*772 FILLER_0_4_307
*773 FILLER_0_4_309
*774 FILLER_0_4_321
*775 FILLER_0_4_333
*776 FILLER_0_4_345
*777 FILLER_0_4_357
*778 FILLER_0_4_363
*779 FILLER_0_4_365
*780 FILLER_0_4_377
*781 FILLER_0_4_389
*782 FILLER_0_4_401
*783 FILLER_0_4_41
*784 FILLER_0_4_413
*785 FILLER_0_4_419
*786 FILLER_0_4_421
*787 FILLER_0_4_433
*788 FILLER_0_4_445
*789 FILLER_0_4_457
*790 FILLER_0_4_469
*791 FILLER_0_4_475
*792 FILLER_0_4_477
*793 FILLER_0_4_489
*794 FILLER_0_4_493
*795 FILLER_0_4_53
*796 FILLER_0_4_65
*797 FILLER_0_4_77
*798 FILLER_0_4_83
*799 FILLER_0_4_85
*800 FILLER_0_4_97
*801 FILLER_0_5_105
*802 FILLER_0_5_111
*803 FILLER_0_5_113
*804 FILLER_0_5_125
*805 FILLER_0_5_137
*806 FILLER_0_5_149
*807 FILLER_0_5_15
*808 FILLER_0_5_161
*809 FILLER_0_5_167
*810 FILLER_0_5_169
*811 FILLER_0_5_181
*812 FILLER_0_5_193
*813 FILLER_0_5_205
*814 FILLER_0_5_217
*815 FILLER_0_5_223
*816 FILLER_0_5_225
*817 FILLER_0_5_237
*818 FILLER_0_5_249
*819 FILLER_0_5_261
*820 FILLER_0_5_27
*821 FILLER_0_5_273
*822 FILLER_0_5_279
*823 FILLER_0_5_281
*824 FILLER_0_5_293
*825 FILLER_0_5_3
*826 FILLER_0_5_305
*827 FILLER_0_5_317
*828 FILLER_0_5_329
*829 FILLER_0_5_335
*830 FILLER_0_5_337
*831 FILLER_0_5_349
*832 FILLER_0_5_361
*833 FILLER_0_5_373
*834 FILLER_0_5_385
*835 FILLER_0_5_39
*836 FILLER_0_5_391
*837 FILLER_0_5_393
*838 FILLER_0_5_405
*839 FILLER_0_5_417
*840 FILLER_0_5_429
*841 FILLER_0_5_441
*842 FILLER_0_5_447
*843 FILLER_0_5_449
*844 FILLER_0_5_461
*845 FILLER_0_5_473
*846 FILLER_0_5_485
*847 FILLER_0_5_493
*848 FILLER_0_5_51
*849 FILLER_0_5_55
*850 FILLER_0_5_57
*851 FILLER_0_5_69
*852 FILLER_0_5_81
*853 FILLER_0_5_93
*854 FILLER_0_6_109
*855 FILLER_0_6_121
*856 FILLER_0_6_133
*857 FILLER_0_6_139
*858 FILLER_0_6_141
*859 FILLER_0_6_15
*860 FILLER_0_6_153
*861 FILLER_0_6_165
*862 FILLER_0_6_177
*863 FILLER_0_6_189
*864 FILLER_0_6_195
*865 FILLER_0_6_197
*866 FILLER_0_6_209
*867 FILLER_0_6_221
*868 FILLER_0_6_233
*869 FILLER_0_6_245
*870 FILLER_0_6_251
*871 FILLER_0_6_253
*872 FILLER_0_6_265
*873 FILLER_0_6_27
*874 FILLER_0_6_277
*875 FILLER_0_6_289
*876 FILLER_0_6_29
*877 FILLER_0_6_3
*878 FILLER_0_6_301
*879 FILLER_0_6_307
*880 FILLER_0_6_309
*881 FILLER_0_6_321
*882 FILLER_0_6_333
*883 FILLER_0_6_345
*884 FILLER_0_6_357
*885 FILLER_0_6_363
*886 FILLER_0_6_365
*887 FILLER_0_6_377
*888 FILLER_0_6_389
*889 FILLER_0_6_401
*890 FILLER_0_6_41
*891 FILLER_0_6_413
*892 FILLER_0_6_419
*893 FILLER_0_6_421
*894 FILLER_0_6_433
*895 FILLER_0_6_445
*896 FILLER_0_6_457
*897 FILLER_0_6_469
*898 FILLER_0_6_475
*899 FILLER_0_6_477
*900 FILLER_0_6_489
*901 FILLER_0_6_493
*902 FILLER_0_6_53
*903 FILLER_0_6_65
*904 FILLER_0_6_77
*905 FILLER_0_6_83
*906 FILLER_0_6_85
*907 FILLER_0_6_97
*908 FILLER_0_7_105
*909 FILLER_0_7_111
*910 FILLER_0_7_113
*911 FILLER_0_7_125
*912 FILLER_0_7_137
*913 FILLER_0_7_149
*914 FILLER_0_7_15
*915 FILLER_0_7_161
*916 FILLER_0_7_167
*917 FILLER_0_7_169
*918 FILLER_0_7_181
*919 FILLER_0_7_193
*920 FILLER_0_7_205
*921 FILLER_0_7_217
*922 FILLER_0_7_223
*923 FILLER_0_7_225
*924 FILLER_0_7_237
*925 FILLER_0_7_249
*926 FILLER_0_7_261
*927 FILLER_0_7_27
*928 FILLER_0_7_273
*929 FILLER_0_7_279
*930 FILLER_0_7_281
*931 FILLER_0_7_293
*932 FILLER_0_7_3
*933 FILLER_0_7_305
*934 FILLER_0_7_317
*935 FILLER_0_7_329
*936 FILLER_0_7_335
*937 FILLER_0_7_337
*938 FILLER_0_7_349
*939 FILLER_0_7_361
*940 FILLER_0_7_373
*941 FILLER_0_7_385
*942 FILLER_0_7_39
*943 FILLER_0_7_391
*944 FILLER_0_7_393
*945 FILLER_0_7_405
*946 FILLER_0_7_417
*947 FILLER_0_7_429
*948 FILLER_0_7_441
*949 FILLER_0_7_447
*950 FILLER_0_7_449
*951 FILLER_0_7_461
*952 FILLER_0_7_473
*953 FILLER_0_7_485
*954 FILLER_0_7_493
*955 FILLER_0_7_51
*956 FILLER_0_7_55
*957 FILLER_0_7_57
*958 FILLER_0_7_69
*959 FILLER_0_7_81
*960 FILLER_0_7_93
*961 FILLER_0_8_109
*962 FILLER_0_8_121
*963 FILLER_0_8_133
*964 FILLER_0_8_139
*965 FILLER_0_8_141
*966 FILLER_0_8_15
*967 FILLER_0_8_153
*968 FILLER_0_8_165
*969 FILLER_0_8_177
*970 FILLER_0_8_189
*971 FILLER_0_8_195
*972 FILLER_0_8_197
*973 FILLER_0_8_209
*974 FILLER_0_8_221
*975 FILLER_0_8_233
*976 FILLER_0_8_245
*977 FILLER_0_8_251
*978 FILLER_0_8_253
*979 FILLER_0_8_265
*980 FILLER_0_8_27
*981 FILLER_0_8_277
*982 FILLER_0_8_289
*983 FILLER_0_8_29
*984 FILLER_0_8_3
*985 FILLER_0_8_301
*986 FILLER_0_8_307
*987 FILLER_0_8_309
*988 FILLER_0_8_321
*989 FILLER_0_8_333
*990 FILLER_0_8_345
*991 FILLER_0_8_357
*992 FILLER_0_8_363
*993 FILLER_0_8_365
*994 FILLER_0_8_377
*995 FILLER_0_8_389
*996 FILLER_0_8_401
*997 FILLER_0_8_41
*998 FILLER_0_8_413
*999 FILLER_0_8_419
*1000 FILLER_0_8_421
*1001 FILLER_0_8_433
*1002 FILLER_0_8_445
*1003 FILLER_0_8_457
*1004 FILLER_0_8_469
*1005 FILLER_0_8_475
*1006 FILLER_0_8_477
*1007 FILLER_0_8_489
*1008 FILLER_0_8_493
*1009 FILLER_0_8_53
*1010 FILLER_0_8_65
*1011 FILLER_0_8_77
*1012 FILLER_0_8_83
*1013 FILLER_0_8_85
*1014 FILLER_0_8_97
*1015 FILLER_0_9_105
*1016 FILLER_0_9_111
*1017 FILLER_0_9_113
*1018 FILLER_0_9_125
*1019 FILLER_0_9_137
*1020 FILLER_0_9_149
*1021 FILLER_0_9_15
*1022 FILLER_0_9_161
*1023 FILLER_0_9_167
*1024 FILLER_0_9_169
*1025 FILLER_0_9_181
*1026 FILLER_0_9_193
*1027 FILLER_0_9_205
*1028 FILLER_0_9_217
*1029 FILLER_0_9_223
*1030 FILLER_0_9_225
*1031 FILLER_0_9_237
*1032 FILLER_0_9_249
*1033 FILLER_0_9_261
*1034 FILLER_0_9_27
*1035 FILLER_0_9_273
*1036 FILLER_0_9_279
*1037 FILLER_0_9_281
*1038 FILLER_0_9_293
*1039 FILLER_0_9_3
*1040 FILLER_0_9_305
*1041 FILLER_0_9_317
*1042 FILLER_0_9_329
*1043 FILLER_0_9_335
*1044 FILLER_0_9_337
*1045 FILLER_0_9_349
*1046 FILLER_0_9_361
*1047 FILLER_0_9_373
*1048 FILLER_0_9_385
*1049 FILLER_0_9_39
*1050 FILLER_0_9_391
*1051 FILLER_0_9_393
*1052 FILLER_0_9_405
*1053 FILLER_0_9_417
*1054 FILLER_0_9_429
*1055 FILLER_0_9_441
*1056 FILLER_0_9_447
*1057 FILLER_0_9_449
*1058 FILLER_0_9_461
*1059 FILLER_0_9_473
*1060 FILLER_0_9_485
*1061 FILLER_0_9_493
*1062 FILLER_0_9_51
*1063 FILLER_0_9_55
*1064 FILLER_0_9_57
*1065 FILLER_0_9_69
*1066 FILLER_0_9_81
*1067 FILLER_0_9_93
*1068 Inst_N_term_single2_switch_matrix/_00_
*1069 Inst_N_term_single2_switch_matrix/_01_
*1070 Inst_N_term_single2_switch_matrix/_02_
*1071 Inst_N_term_single2_switch_matrix/_03_
*1072 Inst_N_term_single2_switch_matrix/_04_
*1073 Inst_N_term_single2_switch_matrix/_05_
*1074 Inst_N_term_single2_switch_matrix/_06_
*1075 Inst_N_term_single2_switch_matrix/_07_
*1076 Inst_N_term_single2_switch_matrix/_08_
*1077 Inst_N_term_single2_switch_matrix/_09_
*1078 Inst_N_term_single2_switch_matrix/_10_
*1079 Inst_N_term_single2_switch_matrix/_11_
*1080 Inst_N_term_single2_switch_matrix/_12_
*1081 Inst_N_term_single2_switch_matrix/_13_
*1082 Inst_N_term_single2_switch_matrix/_14_
*1083 Inst_N_term_single2_switch_matrix/_15_
*1084 Inst_N_term_single2_switch_matrix/_16_
*1085 Inst_N_term_single2_switch_matrix/_17_
*1086 Inst_N_term_single2_switch_matrix/_18_
*1087 Inst_N_term_single2_switch_matrix/_19_
*1088 Inst_N_term_single2_switch_matrix/_20_
*1089 Inst_N_term_single2_switch_matrix/_21_
*1090 Inst_N_term_single2_switch_matrix/_22_
*1091 Inst_N_term_single2_switch_matrix/_23_
*1092 Inst_N_term_single2_switch_matrix/_24_
*1093 Inst_N_term_single2_switch_matrix/_25_
*1094 Inst_N_term_single2_switch_matrix/_26_
*1095 Inst_N_term_single2_switch_matrix/_27_
*1096 Inst_N_term_single2_switch_matrix/_28_
*1097 Inst_N_term_single2_switch_matrix/_29_
*1098 Inst_N_term_single2_switch_matrix/_30_
*1099 Inst_N_term_single2_switch_matrix/_31_
*1100 Inst_N_term_single2_switch_matrix/_32_
*1101 Inst_N_term_single2_switch_matrix/_33_
*1102 Inst_N_term_single2_switch_matrix/_34_
*1103 Inst_N_term_single2_switch_matrix/_35_
*1104 Inst_N_term_single2_switch_matrix/_36_
*1105 Inst_N_term_single2_switch_matrix/_37_
*1106 Inst_N_term_single2_switch_matrix/_38_
*1107 Inst_N_term_single2_switch_matrix/_39_
*1108 Inst_N_term_single2_switch_matrix/_40_
*1109 Inst_N_term_single2_switch_matrix/_41_
*1110 Inst_N_term_single2_switch_matrix/_42_
*1111 Inst_N_term_single2_switch_matrix/_43_
*1112 Inst_N_term_single2_switch_matrix/_44_
*1113 Inst_N_term_single2_switch_matrix/_45_
*1114 Inst_N_term_single2_switch_matrix/_46_
*1115 Inst_N_term_single2_switch_matrix/_47_
*1116 Inst_N_term_single2_switch_matrix/_48_
*1117 Inst_N_term_single2_switch_matrix/_49_
*1118 Inst_N_term_single2_switch_matrix/_50_
*1119 Inst_N_term_single2_switch_matrix/_51_
*1120 PHY_0
*1121 PHY_1
*1122 PHY_10
*1123 PHY_11
*1124 PHY_12
*1125 PHY_13
*1126 PHY_14
*1127 PHY_15
*1128 PHY_16
*1129 PHY_17
*1130 PHY_18
*1131 PHY_19
*1132 PHY_2
*1133 PHY_20
*1134 PHY_21
*1135 PHY_22
*1136 PHY_23
*1137 PHY_24
*1138 PHY_25
*1139 PHY_26
*1140 PHY_27
*1141 PHY_3
*1142 PHY_4
*1143 PHY_5
*1144 PHY_6
*1145 PHY_7
*1146 PHY_8
*1147 PHY_9
*1148 TAP_100
*1149 TAP_101
*1150 TAP_102
*1151 TAP_103
*1152 TAP_104
*1153 TAP_105
*1154 TAP_106
*1155 TAP_107
*1156 TAP_108
*1157 TAP_109
*1158 TAP_110
*1159 TAP_111
*1160 TAP_112
*1161 TAP_113
*1162 TAP_114
*1163 TAP_115
*1164 TAP_116
*1165 TAP_117
*1166 TAP_118
*1167 TAP_119
*1168 TAP_120
*1169 TAP_121
*1170 TAP_122
*1171 TAP_123
*1172 TAP_124
*1173 TAP_125
*1174 TAP_126
*1175 TAP_127
*1176 TAP_128
*1177 TAP_129
*1178 TAP_130
*1179 TAP_131
*1180 TAP_132
*1181 TAP_133
*1182 TAP_134
*1183 TAP_135
*1184 TAP_136
*1185 TAP_137
*1186 TAP_138
*1187 TAP_139
*1188 TAP_140
*1189 TAP_141
*1190 TAP_142
*1191 TAP_143
*1192 TAP_144
*1193 TAP_145
*1194 TAP_146
*1195 TAP_147
*1196 TAP_148
*1197 TAP_149
*1198 TAP_150
*1199 TAP_151
*1200 TAP_152
*1201 TAP_153
*1202 TAP_154
*1203 TAP_155
*1204 TAP_156
*1205 TAP_157
*1206 TAP_158
*1207 TAP_159
*1208 TAP_160
*1209 TAP_161
*1210 TAP_162
*1211 TAP_163
*1212 TAP_28
*1213 TAP_29
*1214 TAP_30
*1215 TAP_31
*1216 TAP_32
*1217 TAP_33
*1218 TAP_34
*1219 TAP_35
*1220 TAP_36
*1221 TAP_37
*1222 TAP_38
*1223 TAP_39
*1224 TAP_40
*1225 TAP_41
*1226 TAP_42
*1227 TAP_43
*1228 TAP_44
*1229 TAP_45
*1230 TAP_46
*1231 TAP_47
*1232 TAP_48
*1233 TAP_49
*1234 TAP_50
*1235 TAP_51
*1236 TAP_52
*1237 TAP_53
*1238 TAP_54
*1239 TAP_55
*1240 TAP_56
*1241 TAP_57
*1242 TAP_58
*1243 TAP_59
*1244 TAP_60
*1245 TAP_61
*1246 TAP_62
*1247 TAP_63
*1248 TAP_64
*1249 TAP_65
*1250 TAP_66
*1251 TAP_67
*1252 TAP_68
*1253 TAP_69
*1254 TAP_70
*1255 TAP_71
*1256 TAP_72
*1257 TAP_73
*1258 TAP_74
*1259 TAP_75
*1260 TAP_76
*1261 TAP_77
*1262 TAP_78
*1263 TAP_79
*1264 TAP_80
*1265 TAP_81
*1266 TAP_82
*1267 TAP_83
*1268 TAP_84
*1269 TAP_85
*1270 TAP_86
*1271 TAP_87
*1272 TAP_88
*1273 TAP_89
*1274 TAP_90
*1275 TAP_91
*1276 TAP_92
*1277 TAP_93
*1278 TAP_94
*1279 TAP_95
*1280 TAP_96
*1281 TAP_97
*1282 TAP_98
*1283 TAP_99
*1284 input1
*1285 input10
*1286 input11
*1287 input12
*1288 input13
*1289 input14
*1290 input15
*1291 input16
*1292 input17
*1293 input18
*1294 input19
*1295 input2
*1296 input20
*1297 input21
*1298 input22
*1299 input23
*1300 input24
*1301 input25
*1302 input26
*1303 input27
*1304 input28
*1305 input29
*1306 input3
*1307 input30
*1308 input31
*1309 input32
*1310 input33
*1311 input34
*1312 input35
*1313 input36
*1314 input37
*1315 input38
*1316 input39
*1317 input4
*1318 input40
*1319 input41
*1320 input42
*1321 input43
*1322 input44
*1323 input45
*1324 input46
*1325 input47
*1326 input48
*1327 input49
*1328 input5
*1329 input50
*1330 input51
*1331 input52
*1332 input53
*1333 input54
*1334 input55
*1335 input56
*1336 input57
*1337 input58
*1338 input59
*1339 input6
*1340 input60
*1341 input61
*1342 input62
*1343 input63
*1344 input64
*1345 input65
*1346 input66
*1347 input67
*1348 input68
*1349 input69
*1350 input7
*1351 input70
*1352 input71
*1353 input72
*1354 input73
*1355 input8
*1356 input9
*1357 inst_clk_buf
*1358 output100
*1359 output101
*1360 output102
*1361 output103
*1362 output104
*1363 output105
*1364 output106
*1365 output107
*1366 output108
*1367 output109
*1368 output110
*1369 output111
*1370 output112
*1371 output113
*1372 output114
*1373 output115
*1374 output116
*1375 output117
*1376 output118
*1377 output119
*1378 output120
*1379 output121
*1380 output122
*1381 output123
*1382 output124
*1383 output125
*1384 output126
*1385 output127
*1386 output128
*1387 output129
*1388 output130
*1389 output131
*1390 output132
*1391 output133
*1392 output134
*1393 output135
*1394 output136
*1395 output137
*1396 output138
*1397 output139
*1398 output140
*1399 output141
*1400 output142
*1401 output143
*1402 output144
*1403 output145
*1404 output146
*1405 output74
*1406 output75
*1407 output76
*1408 output77
*1409 output78
*1410 output79
*1411 output80
*1412 output81
*1413 output82
*1414 output83
*1415 output84
*1416 output85
*1417 output86
*1418 output87
*1419 output88
*1420 output89
*1421 output90
*1422 output91
*1423 output92
*1424 output93
*1425 output94
*1426 output95
*1427 output96
*1428 output97
*1429 output98
*1430 output99
*1431 strobe_inbuf_0/_0_
*1432 strobe_inbuf_1/_0_
*1433 strobe_inbuf_10/_0_
*1434 strobe_inbuf_11/_0_
*1435 strobe_inbuf_12/_0_
*1436 strobe_inbuf_13/_0_
*1437 strobe_inbuf_14/_0_
*1438 strobe_inbuf_15/_0_
*1439 strobe_inbuf_16/_0_
*1440 strobe_inbuf_17/_0_
*1441 strobe_inbuf_18/_0_
*1442 strobe_inbuf_19/_0_
*1443 strobe_inbuf_2/_0_
*1444 strobe_inbuf_3/_0_
*1445 strobe_inbuf_4/_0_
*1446 strobe_inbuf_5/_0_
*1447 strobe_inbuf_6/_0_
*1448 strobe_inbuf_7/_0_
*1449 strobe_inbuf_8/_0_
*1450 strobe_inbuf_9/_0_
*1451 strobe_outbuf_0/_0_
*1452 strobe_outbuf_1/_0_
*1453 strobe_outbuf_10/_0_
*1454 strobe_outbuf_11/_0_
*1455 strobe_outbuf_12/_0_
*1456 strobe_outbuf_13/_0_
*1457 strobe_outbuf_14/_0_
*1458 strobe_outbuf_15/_0_
*1459 strobe_outbuf_16/_0_
*1460 strobe_outbuf_17/_0_
*1461 strobe_outbuf_18/_0_
*1462 strobe_outbuf_19/_0_
*1463 strobe_outbuf_2/_0_
*1464 strobe_outbuf_3/_0_
*1465 strobe_outbuf_4/_0_
*1466 strobe_outbuf_5/_0_
*1467 strobe_outbuf_6/_0_
*1468 strobe_outbuf_7/_0_
*1469 strobe_outbuf_8/_0_
*1470 strobe_outbuf_9/_0_

*PORTS
FrameStrobe[0] I
FrameStrobe[10] I
FrameStrobe[11] I
FrameStrobe[12] I
FrameStrobe[13] I
FrameStrobe[14] I
FrameStrobe[15] I
FrameStrobe[16] I
FrameStrobe[17] I
FrameStrobe[18] I
FrameStrobe[19] I
FrameStrobe[1] I
FrameStrobe[2] I
FrameStrobe[3] I
FrameStrobe[4] I
FrameStrobe[5] I
FrameStrobe[6] I
FrameStrobe[7] I
FrameStrobe[8] I
FrameStrobe[9] I
FrameStrobe_O[0] O
FrameStrobe_O[10] O
FrameStrobe_O[11] O
FrameStrobe_O[12] O
FrameStrobe_O[13] O
FrameStrobe_O[14] O
FrameStrobe_O[15] O
FrameStrobe_O[16] O
FrameStrobe_O[17] O
FrameStrobe_O[18] O
FrameStrobe_O[19] O
FrameStrobe_O[1] O
FrameStrobe_O[2] O
FrameStrobe_O[3] O
FrameStrobe_O[4] O
FrameStrobe_O[5] O
FrameStrobe_O[6] O
FrameStrobe_O[7] O
FrameStrobe_O[8] O
FrameStrobe_O[9] O
N1END[0] I
N1END[1] I
N1END[2] I
N1END[3] I
N2END[0] I
N2END[1] I
N2END[2] I
N2END[3] I
N2END[4] I
N2END[5] I
N2END[6] I
N2END[7] I
N2MID[0] I
N2MID[1] I
N2MID[2] I
N2MID[3] I
N2MID[4] I
N2MID[5] I
N2MID[6] I
N2MID[7] I
N4END[0] I
N4END[10] I
N4END[11] I
N4END[12] I
N4END[13] I
N4END[14] I
N4END[15] I
N4END[1] I
N4END[2] I
N4END[3] I
N4END[4] I
N4END[5] I
N4END[6] I
N4END[7] I
N4END[8] I
N4END[9] I
NN4END[0] I
NN4END[10] I
NN4END[11] I
NN4END[12] I
NN4END[13] I
NN4END[14] I
NN4END[15] I
NN4END[1] I
NN4END[2] I
NN4END[3] I
NN4END[4] I
NN4END[5] I
NN4END[6] I
NN4END[7] I
NN4END[8] I
NN4END[9] I
S1BEG[0] O
S1BEG[1] O
S1BEG[2] O
S1BEG[3] O
S2BEG[0] O
S2BEG[1] O
S2BEG[2] O
S2BEG[3] O
S2BEG[4] O
S2BEG[5] O
S2BEG[6] O
S2BEG[7] O
S2BEGb[0] O
S2BEGb[1] O
S2BEGb[2] O
S2BEGb[3] O
S2BEGb[4] O
S2BEGb[5] O
S2BEGb[6] O
S2BEGb[7] O
S4BEG[0] O
S4BEG[10] O
S4BEG[11] O
S4BEG[12] O
S4BEG[13] O
S4BEG[14] O
S4BEG[15] O
S4BEG[1] O
S4BEG[2] O
S4BEG[3] O
S4BEG[4] O
S4BEG[5] O
S4BEG[6] O
S4BEG[7] O
S4BEG[8] O
S4BEG[9] O
SS4BEG[0] O
SS4BEG[10] O
SS4BEG[11] O
SS4BEG[12] O
SS4BEG[13] O
SS4BEG[14] O
SS4BEG[15] O
SS4BEG[1] O
SS4BEG[2] O
SS4BEG[3] O
SS4BEG[4] O
SS4BEG[5] O
SS4BEG[6] O
SS4BEG[7] O
SS4BEG[8] O
SS4BEG[9] O
UserCLK I
UserCLKo O

*D_NET *1 0.00224054
*CONN
*P FrameStrobe[0] I
*I *1284:A I *D sky130_fd_sc_hd__buf_1
*CAP
1 FrameStrobe[0] 0.000630312
2 *1284:A 0
3 *1:11 0.000630312
4 *1:11 *1287:A 0.000485535
5 *1:11 *1354:A 0
6 *1:11 *203:16 0.000354122
7 *1:11 *210:40 0.000140259
8 *1:11 *286:8 0
*RES
1 FrameStrobe[0] *1:11 28.0707 
2 *1:11 *1284:A 23 
*END
