*SPEF "ieee 1481-1999"
*DESIGN "N_term_DSP"
*DATE "11:11:11 Fri 11 11, 1111"
*VENDOR "OpenRCX"
*PROGRAM "Parallel Extraction"
*VERSION "1.0"
*DESIGN_FLOW "NAME_SCOPE LOCAL" "PIN_CAP NONE"
*DIVIDER /
*DELIMITER :
*BUS_DELIMITER []
*T_UNIT 1 NS
*C_UNIT 1 PF
*R_UNIT 1 OHM
*L_UNIT 1 HENRY

*NAME_MAP
*1 FrameStrobe[0]
*2 FrameStrobe[10]
*3 FrameStrobe[11]
*4 FrameStrobe[12]
*5 FrameStrobe[13]
*6 FrameStrobe[14]
*7 FrameStrobe[15]
*8 FrameStrobe[16]
*9 FrameStrobe[17]
*10 FrameStrobe[18]
*11 FrameStrobe[19]
*12 FrameStrobe[1]
*13 FrameStrobe[2]
*14 FrameStrobe[3]
*15 FrameStrobe[4]
*16 FrameStrobe[5]
*17 FrameStrobe[6]
*18 FrameStrobe[7]
*19 FrameStrobe[8]
*20 FrameStrobe[9]
*21 FrameStrobe_O[0]
*22 FrameStrobe_O[10]
*23 FrameStrobe_O[11]
*24 FrameStrobe_O[12]
*25 FrameStrobe_O[13]
*26 FrameStrobe_O[14]
*27 FrameStrobe_O[15]
*28 FrameStrobe_O[16]
*29 FrameStrobe_O[17]
*30 FrameStrobe_O[18]
*31 FrameStrobe_O[19]
*32 FrameStrobe_O[1]
*33 FrameStrobe_O[2]
*34 FrameStrobe_O[3]
*35 FrameStrobe_O[4]
*36 FrameStrobe_O[5]
*37 FrameStrobe_O[6]
*38 FrameStrobe_O[7]
*39 FrameStrobe_O[8]
*40 FrameStrobe_O[9]
*41 N1END[0]
*42 N1END[1]
*43 N1END[2]
*44 N1END[3]
*45 N2END[0]
*46 N2END[1]
*47 N2END[2]
*48 N2END[3]
*49 N2END[4]
*50 N2END[5]
*51 N2END[6]
*52 N2END[7]
*53 N2MID[0]
*54 N2MID[1]
*55 N2MID[2]
*56 N2MID[3]
*57 N2MID[4]
*58 N2MID[5]
*59 N2MID[6]
*60 N2MID[7]
*61 N4END[0]
*62 N4END[10]
*63 N4END[11]
*64 N4END[12]
*65 N4END[13]
*66 N4END[14]
*67 N4END[15]
*68 N4END[1]
*69 N4END[2]
*70 N4END[3]
*71 N4END[4]
*72 N4END[5]
*73 N4END[6]
*74 N4END[7]
*75 N4END[8]
*76 N4END[9]
*77 NN4END[0]
*78 NN4END[10]
*79 NN4END[11]
*80 NN4END[12]
*81 NN4END[13]
*82 NN4END[14]
*83 NN4END[15]
*84 NN4END[1]
*85 NN4END[2]
*86 NN4END[3]
*87 NN4END[4]
*88 NN4END[5]
*89 NN4END[6]
*90 NN4END[7]
*91 NN4END[8]
*92 NN4END[9]
*93 S1BEG[0]
*94 S1BEG[1]
*95 S1BEG[2]
*96 S1BEG[3]
*97 S2BEG[0]
*98 S2BEG[1]
*99 S2BEG[2]
*100 S2BEG[3]
*101 S2BEG[4]
*102 S2BEG[5]
*103 S2BEG[6]
*104 S2BEG[7]
*105 S2BEGb[0]
*106 S2BEGb[1]
*107 S2BEGb[2]
*108 S2BEGb[3]
*109 S2BEGb[4]
*110 S2BEGb[5]
*111 S2BEGb[6]
*112 S2BEGb[7]
*113 S4BEG[0]
*114 S4BEG[10]
*115 S4BEG[11]
*116 S4BEG[12]
*117 S4BEG[13]
*118 S4BEG[14]
*119 S4BEG[15]
*120 S4BEG[1]
*121 S4BEG[2]
*122 S4BEG[3]
*123 S4BEG[4]
*124 S4BEG[5]
*125 S4BEG[6]
*126 S4BEG[7]
*127 S4BEG[8]
*128 S4BEG[9]
*129 SS4BEG[0]
*130 SS4BEG[10]
*131 SS4BEG[11]
*132 SS4BEG[12]
*133 SS4BEG[13]
*134 SS4BEG[14]
*135 SS4BEG[15]
*136 SS4BEG[1]
*137 SS4BEG[2]
*138 SS4BEG[3]
*139 SS4BEG[4]
*140 SS4BEG[5]
*141 SS4BEG[6]
*142 SS4BEG[7]
*143 SS4BEG[8]
*144 SS4BEG[9]
*145 UserCLK
*146 UserCLKo
*149 FrameStrobe_O_i\[0\]
*150 FrameStrobe_O_i\[10\]
*151 FrameStrobe_O_i\[11\]
*152 FrameStrobe_O_i\[12\]
*153 FrameStrobe_O_i\[13\]
*154 FrameStrobe_O_i\[14\]
*155 FrameStrobe_O_i\[15\]
*156 FrameStrobe_O_i\[16\]
*157 FrameStrobe_O_i\[17\]
*158 FrameStrobe_O_i\[18\]
*159 FrameStrobe_O_i\[19\]
*160 FrameStrobe_O_i\[1\]
*161 FrameStrobe_O_i\[2\]
*162 FrameStrobe_O_i\[3\]
*163 FrameStrobe_O_i\[4\]
*164 FrameStrobe_O_i\[5\]
*165 FrameStrobe_O_i\[6\]
*166 FrameStrobe_O_i\[7\]
*167 FrameStrobe_O_i\[8\]
*168 FrameStrobe_O_i\[9\]
*169 net1
*170 net10
*171 net100
*172 net101
*173 net102
*174 net103
*175 net104
*176 net105
*177 net106
*178 net107
*179 net108
*180 net109
*181 net11
*182 net110
*183 net111
*184 net112
*185 net113
*186 net114
*187 net115
*188 net116
*189 net117
*190 net118
*191 net119
*192 net12
*193 net120
*194 net121
*195 net122
*196 net123
*197 net124
*198 net125
*199 net126
*200 net127
*201 net128
*202 net129
*203 net13
*204 net130
*205 net131
*206 net132
*207 net133
*208 net134
*209 net135
*210 net136
*211 net137
*212 net138
*213 net139
*214 net14
*215 net140
*216 net141
*217 net142
*218 net143
*219 net144
*220 net145
*221 net146
*222 net15
*223 net16
*224 net17
*225 net18
*226 net19
*227 net2
*228 net20
*229 net21
*230 net22
*231 net23
*232 net24
*233 net25
*234 net26
*235 net27
*236 net28
*237 net29
*238 net3
*239 net30
*240 net31
*241 net32
*242 net33
*243 net34
*244 net35
*245 net36
*246 net37
*247 net38
*248 net39
*249 net4
*250 net40
*251 net41
*252 net42
*253 net43
*254 net44
*255 net45
*256 net46
*257 net47
*258 net48
*259 net49
*260 net5
*261 net50
*262 net51
*263 net52
*264 net53
*265 net54
*266 net55
*267 net56
*268 net57
*269 net58
*270 net59
*271 net6
*272 net60
*273 net61
*274 net62
*275 net63
*276 net64
*277 net65
*278 net66
*279 net67
*280 net68
*281 net69
*282 net7
*283 net70
*284 net71
*285 net72
*286 net73
*287 net74
*288 net75
*289 net76
*290 net77
*291 net78
*292 net79
*293 net8
*294 net80
*295 net81
*296 net82
*297 net83
*298 net84
*299 net85
*300 net86
*301 net87
*302 net88
*303 net89
*304 net9
*305 net90
*306 net91
*307 net92
*308 net93
*309 net94
*310 net95
*311 net96
*312 net97
*313 net98
*314 net99
*315 ANTENNA_1
*316 ANTENNA_2
*317 ANTENNA_3
*318 ANTENNA_4
*319 ANTENNA_5
*320 FILLER_0_0_15
*321 FILLER_0_0_218
*322 FILLER_0_0_231
*323 FILLER_0_0_251
*324 FILLER_0_0_27
*325 FILLER_0_0_275
*326 FILLER_0_0_29
*327 FILLER_0_0_299
*328 FILLER_0_0_3
*329 FILLER_0_0_303
*330 FILLER_0_0_371
*331 FILLER_0_0_390
*332 FILLER_0_0_442
*333 FILLER_0_0_449
*334 FILLER_0_0_461
*335 FILLER_0_10_109
*336 FILLER_0_10_121
*337 FILLER_0_10_133
*338 FILLER_0_10_139
*339 FILLER_0_10_141
*340 FILLER_0_10_15
*341 FILLER_0_10_153
*342 FILLER_0_10_165
*343 FILLER_0_10_177
*344 FILLER_0_10_189
*345 FILLER_0_10_195
*346 FILLER_0_10_197
*347 FILLER_0_10_209
*348 FILLER_0_10_221
*349 FILLER_0_10_233
*350 FILLER_0_10_245
*351 FILLER_0_10_251
*352 FILLER_0_10_253
*353 FILLER_0_10_265
*354 FILLER_0_10_27
*355 FILLER_0_10_277
*356 FILLER_0_10_289
*357 FILLER_0_10_29
*358 FILLER_0_10_3
*359 FILLER_0_10_301
*360 FILLER_0_10_307
*361 FILLER_0_10_309
*362 FILLER_0_10_321
*363 FILLER_0_10_333
*364 FILLER_0_10_345
*365 FILLER_0_10_357
*366 FILLER_0_10_363
*367 FILLER_0_10_365
*368 FILLER_0_10_377
*369 FILLER_0_10_389
*370 FILLER_0_10_401
*371 FILLER_0_10_41
*372 FILLER_0_10_413
*373 FILLER_0_10_419
*374 FILLER_0_10_421
*375 FILLER_0_10_433
*376 FILLER_0_10_445
*377 FILLER_0_10_457
*378 FILLER_0_10_461
*379 FILLER_0_10_53
*380 FILLER_0_10_65
*381 FILLER_0_10_77
*382 FILLER_0_10_83
*383 FILLER_0_10_85
*384 FILLER_0_10_97
*385 FILLER_0_11_105
*386 FILLER_0_11_111
*387 FILLER_0_11_113
*388 FILLER_0_11_125
*389 FILLER_0_11_137
*390 FILLER_0_11_149
*391 FILLER_0_11_15
*392 FILLER_0_11_161
*393 FILLER_0_11_167
*394 FILLER_0_11_169
*395 FILLER_0_11_181
*396 FILLER_0_11_193
*397 FILLER_0_11_205
*398 FILLER_0_11_217
*399 FILLER_0_11_223
*400 FILLER_0_11_225
*401 FILLER_0_11_237
*402 FILLER_0_11_249
*403 FILLER_0_11_261
*404 FILLER_0_11_27
*405 FILLER_0_11_273
*406 FILLER_0_11_279
*407 FILLER_0_11_281
*408 FILLER_0_11_293
*409 FILLER_0_11_3
*410 FILLER_0_11_305
*411 FILLER_0_11_317
*412 FILLER_0_11_329
*413 FILLER_0_11_335
*414 FILLER_0_11_337
*415 FILLER_0_11_349
*416 FILLER_0_11_361
*417 FILLER_0_11_373
*418 FILLER_0_11_385
*419 FILLER_0_11_39
*420 FILLER_0_11_391
*421 FILLER_0_11_393
*422 FILLER_0_11_405
*423 FILLER_0_11_417
*424 FILLER_0_11_429
*425 FILLER_0_11_441
*426 FILLER_0_11_447
*427 FILLER_0_11_449
*428 FILLER_0_11_461
*429 FILLER_0_11_51
*430 FILLER_0_11_55
*431 FILLER_0_11_57
*432 FILLER_0_11_69
*433 FILLER_0_11_81
*434 FILLER_0_11_93
*435 FILLER_0_12_109
*436 FILLER_0_12_121
*437 FILLER_0_12_133
*438 FILLER_0_12_139
*439 FILLER_0_12_141
*440 FILLER_0_12_15
*441 FILLER_0_12_153
*442 FILLER_0_12_165
*443 FILLER_0_12_177
*444 FILLER_0_12_189
*445 FILLER_0_12_195
*446 FILLER_0_12_197
*447 FILLER_0_12_209
*448 FILLER_0_12_221
*449 FILLER_0_12_233
*450 FILLER_0_12_245
*451 FILLER_0_12_251
*452 FILLER_0_12_253
*453 FILLER_0_12_265
*454 FILLER_0_12_27
*455 FILLER_0_12_277
*456 FILLER_0_12_289
*457 FILLER_0_12_29
*458 FILLER_0_12_3
*459 FILLER_0_12_301
*460 FILLER_0_12_307
*461 FILLER_0_12_309
*462 FILLER_0_12_321
*463 FILLER_0_12_333
*464 FILLER_0_12_345
*465 FILLER_0_12_357
*466 FILLER_0_12_363
*467 FILLER_0_12_365
*468 FILLER_0_12_377
*469 FILLER_0_12_389
*470 FILLER_0_12_401
*471 FILLER_0_12_41
*472 FILLER_0_12_413
*473 FILLER_0_12_419
*474 FILLER_0_12_421
*475 FILLER_0_12_433
*476 FILLER_0_12_445
*477 FILLER_0_12_457
*478 FILLER_0_12_461
*479 FILLER_0_12_53
*480 FILLER_0_12_65
*481 FILLER_0_12_77
*482 FILLER_0_12_83
*483 FILLER_0_12_85
*484 FILLER_0_12_97
*485 FILLER_0_13_111
*486 FILLER_0_13_113
*487 FILLER_0_13_117
*488 FILLER_0_13_122
*489 FILLER_0_13_134
*490 FILLER_0_13_145
*491 FILLER_0_13_157
*492 FILLER_0_13_163
*493 FILLER_0_13_169
*494 FILLER_0_13_181
*495 FILLER_0_13_191
*496 FILLER_0_13_195
*497 FILLER_0_13_197
*498 FILLER_0_13_209
*499 FILLER_0_13_21
*500 FILLER_0_13_214
*501 FILLER_0_13_222
*502 FILLER_0_13_225
*503 FILLER_0_13_237
*504 FILLER_0_13_249
*505 FILLER_0_13_253
*506 FILLER_0_13_260
*507 FILLER_0_13_27
*508 FILLER_0_13_272
*509 FILLER_0_13_285
*510 FILLER_0_13_297
*511 FILLER_0_13_306
*512 FILLER_0_13_309
*513 FILLER_0_13_321
*514 FILLER_0_13_329
*515 FILLER_0_13_33
*516 FILLER_0_13_335
*517 FILLER_0_13_337
*518 FILLER_0_13_345
*519 FILLER_0_13_352
*520 FILLER_0_13_365
*521 FILLER_0_13_37
*522 FILLER_0_13_375
*523 FILLER_0_13_387
*524 FILLER_0_13_391
*525 FILLER_0_13_399
*526 FILLER_0_13_411
*527 FILLER_0_13_419
*528 FILLER_0_13_427
*529 FILLER_0_13_439
*530 FILLER_0_13_446
*531 FILLER_0_13_449
*532 FILLER_0_13_45
*533 FILLER_0_13_457
*534 FILLER_0_13_53
*535 FILLER_0_13_57
*536 FILLER_0_13_69
*537 FILLER_0_13_76
*538 FILLER_0_13_85
*539 FILLER_0_13_9
*540 FILLER_0_13_91
*541 FILLER_0_13_99
*542 FILLER_0_1_110
*543 FILLER_0_1_113
*544 FILLER_0_1_125
*545 FILLER_0_1_140
*546 FILLER_0_1_145
*547 FILLER_0_1_149
*548 FILLER_0_1_15
*549 FILLER_0_1_169
*550 FILLER_0_1_204
*551 FILLER_0_1_225
*552 FILLER_0_1_233
*553 FILLER_0_1_262
*554 FILLER_0_1_27
*555 FILLER_0_1_275
*556 FILLER_0_1_299
*557 FILLER_0_1_3
*558 FILLER_0_1_310
*559 FILLER_0_1_321
*560 FILLER_0_1_335
*561 FILLER_0_1_371
*562 FILLER_0_1_386
*563 FILLER_0_1_39
*564 FILLER_0_1_399
*565 FILLER_0_1_405
*566 FILLER_0_1_412
*567 FILLER_0_1_420
*568 FILLER_0_1_425
*569 FILLER_0_1_431
*570 FILLER_0_1_435
*571 FILLER_0_1_447
*572 FILLER_0_1_449
*573 FILLER_0_1_461
*574 FILLER_0_1_51
*575 FILLER_0_1_55
*576 FILLER_0_1_57
*577 FILLER_0_1_62
*578 FILLER_0_1_74
*579 FILLER_0_1_86
*580 FILLER_0_1_98
*581 FILLER_0_2_109
*582 FILLER_0_2_121
*583 FILLER_0_2_133
*584 FILLER_0_2_139
*585 FILLER_0_2_144
*586 FILLER_0_2_15
*587 FILLER_0_2_156
*588 FILLER_0_2_162
*589 FILLER_0_2_166
*590 FILLER_0_2_170
*591 FILLER_0_2_175
*592 FILLER_0_2_197
*593 FILLER_0_2_224
*594 FILLER_0_2_235
*595 FILLER_0_2_240
*596 FILLER_0_2_256
*597 FILLER_0_2_27
*598 FILLER_0_2_287
*599 FILLER_0_2_29
*600 FILLER_0_2_295
*601 FILLER_0_2_3
*602 FILLER_0_2_306
*603 FILLER_0_2_321
*604 FILLER_0_2_332
*605 FILLER_0_2_336
*606 FILLER_0_2_344
*607 FILLER_0_2_349
*608 FILLER_0_2_355
*609 FILLER_0_2_363
*610 FILLER_0_2_365
*611 FILLER_0_2_377
*612 FILLER_0_2_386
*613 FILLER_0_2_401
*614 FILLER_0_2_41
*615 FILLER_0_2_413
*616 FILLER_0_2_421
*617 FILLER_0_2_429
*618 FILLER_0_2_433
*619 FILLER_0_2_445
*620 FILLER_0_2_450
*621 FILLER_0_2_53
*622 FILLER_0_2_65
*623 FILLER_0_2_77
*624 FILLER_0_2_83
*625 FILLER_0_2_85
*626 FILLER_0_2_97
*627 FILLER_0_3_105
*628 FILLER_0_3_111
*629 FILLER_0_3_113
*630 FILLER_0_3_125
*631 FILLER_0_3_137
*632 FILLER_0_3_149
*633 FILLER_0_3_15
*634 FILLER_0_3_161
*635 FILLER_0_3_167
*636 FILLER_0_3_169
*637 FILLER_0_3_181
*638 FILLER_0_3_193
*639 FILLER_0_3_202
*640 FILLER_0_3_214
*641 FILLER_0_3_222
*642 FILLER_0_3_229
*643 FILLER_0_3_241
*644 FILLER_0_3_253
*645 FILLER_0_3_265
*646 FILLER_0_3_27
*647 FILLER_0_3_277
*648 FILLER_0_3_290
*649 FILLER_0_3_3
*650 FILLER_0_3_302
*651 FILLER_0_3_310
*652 FILLER_0_3_322
*653 FILLER_0_3_334
*654 FILLER_0_3_337
*655 FILLER_0_3_349
*656 FILLER_0_3_361
*657 FILLER_0_3_373
*658 FILLER_0_3_385
*659 FILLER_0_3_39
*660 FILLER_0_3_391
*661 FILLER_0_3_393
*662 FILLER_0_3_405
*663 FILLER_0_3_417
*664 FILLER_0_3_429
*665 FILLER_0_3_441
*666 FILLER_0_3_447
*667 FILLER_0_3_449
*668 FILLER_0_3_461
*669 FILLER_0_3_51
*670 FILLER_0_3_55
*671 FILLER_0_3_57
*672 FILLER_0_3_69
*673 FILLER_0_3_81
*674 FILLER_0_3_93
*675 FILLER_0_4_109
*676 FILLER_0_4_121
*677 FILLER_0_4_133
*678 FILLER_0_4_139
*679 FILLER_0_4_141
*680 FILLER_0_4_15
*681 FILLER_0_4_153
*682 FILLER_0_4_165
*683 FILLER_0_4_177
*684 FILLER_0_4_189
*685 FILLER_0_4_195
*686 FILLER_0_4_197
*687 FILLER_0_4_209
*688 FILLER_0_4_221
*689 FILLER_0_4_233
*690 FILLER_0_4_245
*691 FILLER_0_4_251
*692 FILLER_0_4_253
*693 FILLER_0_4_265
*694 FILLER_0_4_27
*695 FILLER_0_4_277
*696 FILLER_0_4_289
*697 FILLER_0_4_29
*698 FILLER_0_4_3
*699 FILLER_0_4_301
*700 FILLER_0_4_307
*701 FILLER_0_4_309
*702 FILLER_0_4_321
*703 FILLER_0_4_333
*704 FILLER_0_4_345
*705 FILLER_0_4_357
*706 FILLER_0_4_363
*707 FILLER_0_4_365
*708 FILLER_0_4_377
*709 FILLER_0_4_389
*710 FILLER_0_4_401
*711 FILLER_0_4_41
*712 FILLER_0_4_413
*713 FILLER_0_4_419
*714 FILLER_0_4_421
*715 FILLER_0_4_433
*716 FILLER_0_4_445
*717 FILLER_0_4_457
*718 FILLER_0_4_461
*719 FILLER_0_4_53
*720 FILLER_0_4_65
*721 FILLER_0_4_77
*722 FILLER_0_4_83
*723 FILLER_0_4_85
*724 FILLER_0_4_97
*725 FILLER_0_5_105
*726 FILLER_0_5_111
*727 FILLER_0_5_113
*728 FILLER_0_5_125
*729 FILLER_0_5_137
*730 FILLER_0_5_149
*731 FILLER_0_5_15
*732 FILLER_0_5_161
*733 FILLER_0_5_167
*734 FILLER_0_5_169
*735 FILLER_0_5_181
*736 FILLER_0_5_193
*737 FILLER_0_5_205
*738 FILLER_0_5_217
*739 FILLER_0_5_223
*740 FILLER_0_5_225
*741 FILLER_0_5_237
*742 FILLER_0_5_249
*743 FILLER_0_5_261
*744 FILLER_0_5_27
*745 FILLER_0_5_273
*746 FILLER_0_5_279
*747 FILLER_0_5_281
*748 FILLER_0_5_293
*749 FILLER_0_5_3
*750 FILLER_0_5_305
*751 FILLER_0_5_317
*752 FILLER_0_5_329
*753 FILLER_0_5_335
*754 FILLER_0_5_337
*755 FILLER_0_5_349
*756 FILLER_0_5_361
*757 FILLER_0_5_373
*758 FILLER_0_5_385
*759 FILLER_0_5_39
*760 FILLER_0_5_391
*761 FILLER_0_5_393
*762 FILLER_0_5_405
*763 FILLER_0_5_417
*764 FILLER_0_5_429
*765 FILLER_0_5_441
*766 FILLER_0_5_447
*767 FILLER_0_5_449
*768 FILLER_0_5_461
*769 FILLER_0_5_51
*770 FILLER_0_5_55
*771 FILLER_0_5_57
*772 FILLER_0_5_69
*773 FILLER_0_5_81
*774 FILLER_0_5_93
*775 FILLER_0_6_109
*776 FILLER_0_6_121
*777 FILLER_0_6_133
*778 FILLER_0_6_139
*779 FILLER_0_6_141
*780 FILLER_0_6_15
*781 FILLER_0_6_153
*782 FILLER_0_6_165
*783 FILLER_0_6_177
*784 FILLER_0_6_189
*785 FILLER_0_6_195
*786 FILLER_0_6_197
*787 FILLER_0_6_209
*788 FILLER_0_6_221
*789 FILLER_0_6_233
*790 FILLER_0_6_245
*791 FILLER_0_6_251
*792 FILLER_0_6_253
*793 FILLER_0_6_265
*794 FILLER_0_6_27
*795 FILLER_0_6_277
*796 FILLER_0_6_289
*797 FILLER_0_6_29
*798 FILLER_0_6_3
*799 FILLER_0_6_301
*800 FILLER_0_6_307
*801 FILLER_0_6_309
*802 FILLER_0_6_321
*803 FILLER_0_6_333
*804 FILLER_0_6_345
*805 FILLER_0_6_357
*806 FILLER_0_6_363
*807 FILLER_0_6_365
*808 FILLER_0_6_377
*809 FILLER_0_6_389
*810 FILLER_0_6_401
*811 FILLER_0_6_41
*812 FILLER_0_6_413
*813 FILLER_0_6_419
*814 FILLER_0_6_421
*815 FILLER_0_6_433
*816 FILLER_0_6_445
*817 FILLER_0_6_457
*818 FILLER_0_6_461
*819 FILLER_0_6_53
*820 FILLER_0_6_65
*821 FILLER_0_6_77
*822 FILLER_0_6_83
*823 FILLER_0_6_85
*824 FILLER_0_6_97
*825 FILLER_0_7_105
*826 FILLER_0_7_111
*827 FILLER_0_7_113
*828 FILLER_0_7_125
*829 FILLER_0_7_137
*830 FILLER_0_7_149
*831 FILLER_0_7_15
*832 FILLER_0_7_161
*833 FILLER_0_7_167
*834 FILLER_0_7_169
*835 FILLER_0_7_181
*836 FILLER_0_7_193
*837 FILLER_0_7_205
*838 FILLER_0_7_217
*839 FILLER_0_7_223
*840 FILLER_0_7_225
*841 FILLER_0_7_237
*842 FILLER_0_7_249
*843 FILLER_0_7_261
*844 FILLER_0_7_27
*845 FILLER_0_7_273
*846 FILLER_0_7_279
*847 FILLER_0_7_281
*848 FILLER_0_7_293
*849 FILLER_0_7_3
*850 FILLER_0_7_305
*851 FILLER_0_7_317
*852 FILLER_0_7_329
*853 FILLER_0_7_335
*854 FILLER_0_7_337
*855 FILLER_0_7_349
*856 FILLER_0_7_361
*857 FILLER_0_7_373
*858 FILLER_0_7_385
*859 FILLER_0_7_39
*860 FILLER_0_7_391
*861 FILLER_0_7_393
*862 FILLER_0_7_405
*863 FILLER_0_7_417
*864 FILLER_0_7_429
*865 FILLER_0_7_441
*866 FILLER_0_7_447
*867 FILLER_0_7_449
*868 FILLER_0_7_461
*869 FILLER_0_7_51
*870 FILLER_0_7_55
*871 FILLER_0_7_57
*872 FILLER_0_7_69
*873 FILLER_0_7_81
*874 FILLER_0_7_93
*875 FILLER_0_8_109
*876 FILLER_0_8_121
*877 FILLER_0_8_133
*878 FILLER_0_8_139
*879 FILLER_0_8_141
*880 FILLER_0_8_15
*881 FILLER_0_8_153
*882 FILLER_0_8_165
*883 FILLER_0_8_177
*884 FILLER_0_8_189
*885 FILLER_0_8_195
*886 FILLER_0_8_197
*887 FILLER_0_8_209
*888 FILLER_0_8_221
*889 FILLER_0_8_233
*890 FILLER_0_8_245
*891 FILLER_0_8_251
*892 FILLER_0_8_253
*893 FILLER_0_8_265
*894 FILLER_0_8_27
*895 FILLER_0_8_277
*896 FILLER_0_8_289
*897 FILLER_0_8_29
*898 FILLER_0_8_3
*899 FILLER_0_8_301
*900 FILLER_0_8_307
*901 FILLER_0_8_309
*902 FILLER_0_8_321
*903 FILLER_0_8_333
*904 FILLER_0_8_345
*905 FILLER_0_8_357
*906 FILLER_0_8_363
*907 FILLER_0_8_365
*908 FILLER_0_8_377
*909 FILLER_0_8_389
*910 FILLER_0_8_401
*911 FILLER_0_8_41
*912 FILLER_0_8_413
*913 FILLER_0_8_419
*914 FILLER_0_8_421
*915 FILLER_0_8_433
*916 FILLER_0_8_445
*917 FILLER_0_8_457
*918 FILLER_0_8_461
*919 FILLER_0_8_53
*920 FILLER_0_8_65
*921 FILLER_0_8_77
*922 FILLER_0_8_83
*923 FILLER_0_8_85
*924 FILLER_0_8_97
*925 FILLER_0_9_105
*926 FILLER_0_9_111
*927 FILLER_0_9_113
*928 FILLER_0_9_125
*929 FILLER_0_9_137
*930 FILLER_0_9_149
*931 FILLER_0_9_15
*932 FILLER_0_9_161
*933 FILLER_0_9_167
*934 FILLER_0_9_169
*935 FILLER_0_9_181
*936 FILLER_0_9_193
*937 FILLER_0_9_205
*938 FILLER_0_9_217
*939 FILLER_0_9_223
*940 FILLER_0_9_225
*941 FILLER_0_9_237
*942 FILLER_0_9_249
*943 FILLER_0_9_261
*944 FILLER_0_9_27
*945 FILLER_0_9_273
*946 FILLER_0_9_279
*947 FILLER_0_9_281
*948 FILLER_0_9_293
*949 FILLER_0_9_3
*950 FILLER_0_9_305
*951 FILLER_0_9_317
*952 FILLER_0_9_329
*953 FILLER_0_9_335
*954 FILLER_0_9_337
*955 FILLER_0_9_349
*956 FILLER_0_9_361
*957 FILLER_0_9_373
*958 FILLER_0_9_385
*959 FILLER_0_9_39
*960 FILLER_0_9_391
*961 FILLER_0_9_393
*962 FILLER_0_9_405
*963 FILLER_0_9_417
*964 FILLER_0_9_429
*965 FILLER_0_9_441
*966 FILLER_0_9_447
*967 FILLER_0_9_449
*968 FILLER_0_9_461
*969 FILLER_0_9_51
*970 FILLER_0_9_55
*971 FILLER_0_9_57
*972 FILLER_0_9_69
*973 FILLER_0_9_81
*974 FILLER_0_9_93
*975 Inst_N_term_DSP_switch_matrix/_00_
*976 Inst_N_term_DSP_switch_matrix/_01_
*977 Inst_N_term_DSP_switch_matrix/_02_
*978 Inst_N_term_DSP_switch_matrix/_03_
*979 Inst_N_term_DSP_switch_matrix/_04_
*980 Inst_N_term_DSP_switch_matrix/_05_
*981 Inst_N_term_DSP_switch_matrix/_06_
*982 Inst_N_term_DSP_switch_matrix/_07_
*983 Inst_N_term_DSP_switch_matrix/_08_
*984 Inst_N_term_DSP_switch_matrix/_09_
*985 Inst_N_term_DSP_switch_matrix/_10_
*986 Inst_N_term_DSP_switch_matrix/_11_
*987 Inst_N_term_DSP_switch_matrix/_12_
*988 Inst_N_term_DSP_switch_matrix/_13_
*989 Inst_N_term_DSP_switch_matrix/_14_
*990 Inst_N_term_DSP_switch_matrix/_15_
*991 Inst_N_term_DSP_switch_matrix/_16_
*992 Inst_N_term_DSP_switch_matrix/_17_
*993 Inst_N_term_DSP_switch_matrix/_18_
*994 Inst_N_term_DSP_switch_matrix/_19_
*995 Inst_N_term_DSP_switch_matrix/_20_
*996 Inst_N_term_DSP_switch_matrix/_21_
*997 Inst_N_term_DSP_switch_matrix/_22_
*998 Inst_N_term_DSP_switch_matrix/_23_
*999 Inst_N_term_DSP_switch_matrix/_24_
*1000 Inst_N_term_DSP_switch_matrix/_25_
*1001 Inst_N_term_DSP_switch_matrix/_26_
*1002 Inst_N_term_DSP_switch_matrix/_27_
*1003 Inst_N_term_DSP_switch_matrix/_28_
*1004 Inst_N_term_DSP_switch_matrix/_29_
*1005 Inst_N_term_DSP_switch_matrix/_30_
*1006 Inst_N_term_DSP_switch_matrix/_31_
*1007 Inst_N_term_DSP_switch_matrix/_32_
*1008 Inst_N_term_DSP_switch_matrix/_33_
*1009 Inst_N_term_DSP_switch_matrix/_34_
*1010 Inst_N_term_DSP_switch_matrix/_35_
*1011 Inst_N_term_DSP_switch_matrix/_36_
*1012 Inst_N_term_DSP_switch_matrix/_37_
*1013 Inst_N_term_DSP_switch_matrix/_38_
*1014 Inst_N_term_DSP_switch_matrix/_39_
*1015 Inst_N_term_DSP_switch_matrix/_40_
*1016 Inst_N_term_DSP_switch_matrix/_41_
*1017 Inst_N_term_DSP_switch_matrix/_42_
*1018 Inst_N_term_DSP_switch_matrix/_43_
*1019 Inst_N_term_DSP_switch_matrix/_44_
*1020 Inst_N_term_DSP_switch_matrix/_45_
*1021 Inst_N_term_DSP_switch_matrix/_46_
*1022 Inst_N_term_DSP_switch_matrix/_47_
*1023 Inst_N_term_DSP_switch_matrix/_48_
*1024 Inst_N_term_DSP_switch_matrix/_49_
*1025 Inst_N_term_DSP_switch_matrix/_50_
*1026 Inst_N_term_DSP_switch_matrix/_51_
*1027 PHY_0
*1028 PHY_1
*1029 PHY_10
*1030 PHY_11
*1031 PHY_12
*1032 PHY_13
*1033 PHY_14
*1034 PHY_15
*1035 PHY_16
*1036 PHY_17
*1037 PHY_18
*1038 PHY_19
*1039 PHY_2
*1040 PHY_20
*1041 PHY_21
*1042 PHY_22
*1043 PHY_23
*1044 PHY_24
*1045 PHY_25
*1046 PHY_26
*1047 PHY_27
*1048 PHY_3
*1049 PHY_4
*1050 PHY_5
*1051 PHY_6
*1052 PHY_7
*1053 PHY_8
*1054 PHY_9
*1055 TAP_100
*1056 TAP_101
*1057 TAP_102
*1058 TAP_103
*1059 TAP_104
*1060 TAP_105
*1061 TAP_106
*1062 TAP_107
*1063 TAP_108
*1064 TAP_109
*1065 TAP_110
*1066 TAP_111
*1067 TAP_112
*1068 TAP_113
*1069 TAP_114
*1070 TAP_115
*1071 TAP_116
*1072 TAP_117
*1073 TAP_118
*1074 TAP_119
*1075 TAP_120
*1076 TAP_121
*1077 TAP_122
*1078 TAP_123
*1079 TAP_124
*1080 TAP_125
*1081 TAP_126
*1082 TAP_127
*1083 TAP_128
*1084 TAP_129
*1085 TAP_130
*1086 TAP_131
*1087 TAP_132
*1088 TAP_133
*1089 TAP_134
*1090 TAP_135
*1091 TAP_136
*1092 TAP_137
*1093 TAP_138
*1094 TAP_139
*1095 TAP_140
*1096 TAP_141
*1097 TAP_142
*1098 TAP_143
*1099 TAP_144
*1100 TAP_145
*1101 TAP_146
*1102 TAP_147
*1103 TAP_148
*1104 TAP_149
*1105 TAP_150
*1106 TAP_151
*1107 TAP_152
*1108 TAP_153
*1109 TAP_154
*1110 TAP_155
*1111 TAP_28
*1112 TAP_29
*1113 TAP_30
*1114 TAP_31
*1115 TAP_32
*1116 TAP_33
*1117 TAP_34
*1118 TAP_35
*1119 TAP_36
*1120 TAP_37
*1121 TAP_38
*1122 TAP_39
*1123 TAP_40
*1124 TAP_41
*1125 TAP_42
*1126 TAP_43
*1127 TAP_44
*1128 TAP_45
*1129 TAP_46
*1130 TAP_47
*1131 TAP_48
*1132 TAP_49
*1133 TAP_50
*1134 TAP_51
*1135 TAP_52
*1136 TAP_53
*1137 TAP_54
*1138 TAP_55
*1139 TAP_56
*1140 TAP_57
*1141 TAP_58
*1142 TAP_59
*1143 TAP_60
*1144 TAP_61
*1145 TAP_62
*1146 TAP_63
*1147 TAP_64
*1148 TAP_65
*1149 TAP_66
*1150 TAP_67
*1151 TAP_68
*1152 TAP_69
*1153 TAP_70
*1154 TAP_71
*1155 TAP_72
*1156 TAP_73
*1157 TAP_74
*1158 TAP_75
*1159 TAP_76
*1160 TAP_77
*1161 TAP_78
*1162 TAP_79
*1163 TAP_80
*1164 TAP_81
*1165 TAP_82
*1166 TAP_83
*1167 TAP_84
*1168 TAP_85
*1169 TAP_86
*1170 TAP_87
*1171 TAP_88
*1172 TAP_89
*1173 TAP_90
*1174 TAP_91
*1175 TAP_92
*1176 TAP_93
*1177 TAP_94
*1178 TAP_95
*1179 TAP_96
*1180 TAP_97
*1181 TAP_98
*1182 TAP_99
*1183 input1
*1184 input10
*1185 input11
*1186 input12
*1187 input13
*1188 input14
*1189 input15
*1190 input16
*1191 input17
*1192 input18
*1193 input19
*1194 input2
*1195 input20
*1196 input21
*1197 input22
*1198 input23
*1199 input24
*1200 input25
*1201 input26
*1202 input27
*1203 input28
*1204 input29
*1205 input3
*1206 input30
*1207 input31
*1208 input32
*1209 input33
*1210 input34
*1211 input35
*1212 input36
*1213 input37
*1214 input38
*1215 input39
*1216 input4
*1217 input40
*1218 input41
*1219 input42
*1220 input43
*1221 input44
*1222 input45
*1223 input46
*1224 input47
*1225 input48
*1226 input49
*1227 input5
*1228 input50
*1229 input51
*1230 input52
*1231 input53
*1232 input54
*1233 input55
*1234 input56
*1235 input57
*1236 input58
*1237 input59
*1238 input6
*1239 input60
*1240 input61
*1241 input62
*1242 input63
*1243 input64
*1244 input65
*1245 input66
*1246 input67
*1247 input68
*1248 input69
*1249 input7
*1250 input70
*1251 input71
*1252 input72
*1253 input73
*1254 input8
*1255 input9
*1256 inst_clk_buf
*1257 output100
*1258 output101
*1259 output102
*1260 output103
*1261 output104
*1262 output105
*1263 output106
*1264 output107
*1265 output108
*1266 output109
*1267 output110
*1268 output111
*1269 output112
*1270 output113
*1271 output114
*1272 output115
*1273 output116
*1274 output117
*1275 output118
*1276 output119
*1277 output120
*1278 output121
*1279 output122
*1280 output123
*1281 output124
*1282 output125
*1283 output126
*1284 output127
*1285 output128
*1286 output129
*1287 output130
*1288 output131
*1289 output132
*1290 output133
*1291 output134
*1292 output135
*1293 output136
*1294 output137
*1295 output138
*1296 output139
*1297 output140
*1298 output141
*1299 output142
*1300 output143
*1301 output144
*1302 output145
*1303 output146
*1304 output74
*1305 output75
*1306 output76
*1307 output77
*1308 output78
*1309 output79
*1310 output80
*1311 output81
*1312 output82
*1313 output83
*1314 output84
*1315 output85
*1316 output86
*1317 output87
*1318 output88
*1319 output89
*1320 output90
*1321 output91
*1322 output92
*1323 output93
*1324 output94
*1325 output95
*1326 output96
*1327 output97
*1328 output98
*1329 output99
*1330 strobe_inbuf_0/_0_
*1331 strobe_inbuf_1/_0_
*1332 strobe_inbuf_10/_0_
*1333 strobe_inbuf_11/_0_
*1334 strobe_inbuf_12/_0_
*1335 strobe_inbuf_13/_0_
*1336 strobe_inbuf_14/_0_
*1337 strobe_inbuf_15/_0_
*1338 strobe_inbuf_16/_0_
*1339 strobe_inbuf_17/_0_
*1340 strobe_inbuf_18/_0_
*1341 strobe_inbuf_19/_0_
*1342 strobe_inbuf_2/_0_
*1343 strobe_inbuf_3/_0_
*1344 strobe_inbuf_4/_0_
*1345 strobe_inbuf_5/_0_
*1346 strobe_inbuf_6/_0_
*1347 strobe_inbuf_7/_0_
*1348 strobe_inbuf_8/_0_
*1349 strobe_inbuf_9/_0_
*1350 strobe_outbuf_0/_0_
*1351 strobe_outbuf_1/_0_
*1352 strobe_outbuf_10/_0_
*1353 strobe_outbuf_11/_0_
*1354 strobe_outbuf_12/_0_
*1355 strobe_outbuf_13/_0_
*1356 strobe_outbuf_14/_0_
*1357 strobe_outbuf_15/_0_
*1358 strobe_outbuf_16/_0_
*1359 strobe_outbuf_17/_0_
*1360 strobe_outbuf_18/_0_
*1361 strobe_outbuf_19/_0_
*1362 strobe_outbuf_2/_0_
*1363 strobe_outbuf_3/_0_
*1364 strobe_outbuf_4/_0_
*1365 strobe_outbuf_5/_0_
*1366 strobe_outbuf_6/_0_
*1367 strobe_outbuf_7/_0_
*1368 strobe_outbuf_8/_0_
*1369 strobe_outbuf_9/_0_

*PORTS
FrameStrobe[0] I
FrameStrobe[10] I
FrameStrobe[11] I
FrameStrobe[12] I
FrameStrobe[13] I
FrameStrobe[14] I
FrameStrobe[15] I
FrameStrobe[16] I
FrameStrobe[17] I
FrameStrobe[18] I
FrameStrobe[19] I
FrameStrobe[1] I
FrameStrobe[2] I
FrameStrobe[3] I
FrameStrobe[4] I
FrameStrobe[5] I
FrameStrobe[6] I
FrameStrobe[7] I
FrameStrobe[8] I
FrameStrobe[9] I
FrameStrobe_O[0] O
FrameStrobe_O[10] O
FrameStrobe_O[11] O
FrameStrobe_O[12] O
FrameStrobe_O[13] O
FrameStrobe_O[14] O
FrameStrobe_O[15] O
FrameStrobe_O[16] O
FrameStrobe_O[17] O
FrameStrobe_O[18] O
FrameStrobe_O[19] O
FrameStrobe_O[1] O
FrameStrobe_O[2] O
FrameStrobe_O[3] O
FrameStrobe_O[4] O
FrameStrobe_O[5] O
FrameStrobe_O[6] O
FrameStrobe_O[7] O
FrameStrobe_O[8] O
FrameStrobe_O[9] O
N1END[0] I
N1END[1] I
N1END[2] I
N1END[3] I
N2END[0] I
N2END[1] I
N2END[2] I
N2END[3] I
N2END[4] I
N2END[5] I
N2END[6] I
N2END[7] I
N2MID[0] I
N2MID[1] I
N2MID[2] I
N2MID[3] I
N2MID[4] I
N2MID[5] I
N2MID[6] I
N2MID[7] I
N4END[0] I
N4END[10] I
N4END[11] I
N4END[12] I
N4END[13] I
N4END[14] I
N4END[15] I
N4END[1] I
N4END[2] I
N4END[3] I
N4END[4] I
N4END[5] I
N4END[6] I
N4END[7] I
N4END[8] I
N4END[9] I
NN4END[0] I
NN4END[10] I
NN4END[11] I
NN4END[12] I
NN4END[13] I
NN4END[14] I
NN4END[15] I
NN4END[1] I
NN4END[2] I
NN4END[3] I
NN4END[4] I
NN4END[5] I
NN4END[6] I
NN4END[7] I
NN4END[8] I
NN4END[9] I
S1BEG[0] O
S1BEG[1] O
S1BEG[2] O
S1BEG[3] O
S2BEG[0] O
S2BEG[1] O
S2BEG[2] O
S2BEG[3] O
S2BEG[4] O
S2BEG[5] O
S2BEG[6] O
S2BEG[7] O
S2BEGb[0] O
S2BEGb[1] O
S2BEGb[2] O
S2BEGb[3] O
S2BEGb[4] O
S2BEGb[5] O
S2BEGb[6] O
S2BEGb[7] O
S4BEG[0] O
S4BEG[10] O
S4BEG[11] O
S4BEG[12] O
S4BEG[13] O
S4BEG[14] O
S4BEG[15] O
S4BEG[1] O
S4BEG[2] O
S4BEG[3] O
S4BEG[4] O
S4BEG[5] O
S4BEG[6] O
S4BEG[7] O
S4BEG[8] O
S4BEG[9] O
SS4BEG[0] O
SS4BEG[10] O
SS4BEG[11] O
SS4BEG[12] O
SS4BEG[13] O
SS4BEG[14] O
SS4BEG[15] O
SS4BEG[1] O
SS4BEG[2] O
SS4BEG[3] O
SS4BEG[4] O
SS4BEG[5] O
SS4BEG[6] O
SS4BEG[7] O
SS4BEG[8] O
SS4BEG[9] O
UserCLK I
UserCLKo O

*D_NET *1 0.00269695
*CONN
*P FrameStrobe[0] I
*I *1183:A I *D sky130_fd_sc_hd__clkbuf_1
*CAP
1 FrameStrobe[0] 0.00039616
2 *1183:A 0.00039616
3 *1183:A SS4BEG[10] 5.70937e-05
4 *1183:A SS4BEG[15] 0.000610084
5 *1183:A *318:DIODE 2.59926e-05
6 *1183:A *1186:A 0.00026614
7 *1183:A *1191:A 6.42013e-05
8 *1183:A *1293:A 0.000275553
9 *1183:A *206:36 5.81437e-05
10 *1183:A *249:20 0.000326565
11 *1183:A *286:18 0.000220857
*RES
1 FrameStrobe[0] *1183:A 16.995 
*END

*D_NET *2 0.0025929
*CONN
*P FrameStrobe[10] I
*I *1194:A I *D sky130_fd_sc_hd__buf_1
*CAP
1 FrameStrobe[10] 0.000763608
2 *1194:A 0.000763608
3 *1194:A *1184:A 0
4 *1194:A *1190:A 2.16389e-05
5 *1194:A *1195:A 1.49348e-05
6 *1194:A *1205:A 0
7 *1194:A *203:18 0.000102661
8 *1194:A *223:16 0.000105009
9 *1194:A *227:24 0.000749082
10 *1194:A *228:26 7.23602e-05
*RES
1 FrameStrobe[10] *1194:A 19.585 
*END

*D_NET *3 0.00251528
*CONN
*P FrameStrobe[11] I
*I *1205:A I *D sky130_fd_sc_hd__clkbuf_1
*CAP
1 FrameStrobe[11] 0.0005511
2 *1205:A 0.0005511
3 *1205:A *1184:A 0.000180682
4 *1205:A *1190:A 0.000173147
5 *1205:A *1216:A 0.000141207
6 *1205:A *1249:A 0.000122706
7 *1205:A *1254:A 0.000119756
8 *1205:A *1255:A 0.000119762
9 *1205:A *1336:A 0
10 *1205:A *224:16 2.8768e-05
11 *1205:A *227:24 5.82176e-05
12 *1205:A *228:26 0.000459372
13 *1205:A *260:30 9.46111e-06
14 *1194:A *1205:A 0
*RES
1 FrameStrobe[11] *1205:A 20.485 
*END

*D_NET *4 0.00221333
*CONN
*P FrameStrobe[12] I
*I *1216:A I *D sky130_fd_sc_hd__buf_1
*CAP
1 FrameStrobe[12] 0.000741992
2 *1216:A 0.000741992
3 *1216:A *1184:A 4.66826e-05
4 *1216:A *1190:A 0
5 *1216:A *1195:A 2.3549e-05
6 *1216:A *1227:A 8.15027e-05
7 *1216:A *1238:A 3.02513e-05
8 *1216:A *1249:A 6.67235e-05
9 *1216:A *1348:A 0.000141703
10 *1216:A *224:16 7.79612e-05
11 *1216:A *249:20 0.000119762
12 *1205:A *1216:A 0.000141207
*RES
1 FrameStrobe[12] *1216:A 15.795 
*END

*D_NET *5 0.0025793
*CONN
*P FrameStrobe[13] I
*I *1227:A I *D sky130_fd_sc_hd__clkbuf_1
*CAP
1 FrameStrobe[13] 0.000397553
2 *1227:A 0.000397553
3 *1227:A *1185:A 0.000312778
4 *1227:A *1195:A 0.000309612
5 *1227:A *1238:A 0.000747485
6 *1227:A *1337:A 2.7881e-05
7 *1227:A *249:20 7.69787e-05
8 *1227:A *260:30 0.000227952
9 *1216:A *1227:A 8.15027e-05
*RES
1 FrameStrobe[13] *1227:A 20.515 
*END

*D_NET *6 0.00257238
*CONN
*P FrameStrobe[14] I
*I *1238:A I *D sky130_fd_sc_hd__clkbuf_1
*CAP
1 FrameStrobe[14] 0.000481937
2 *1238:A 0.000481937
3 *1238:A *1249:A 0.000209985
4 *1238:A *1337:A 5.16418e-05
5 *1238:A *260:30 0.000569146
6 *1216:A *1238:A 3.02513e-05
7 *1227:A *1238:A 0.000747485
*RES
1 FrameStrobe[14] *1238:A 20.83 
*END
