*SPEF "ieee 1481-1999"
*DESIGN "N_term_RAM_IO"
*DATE "11:11:11 Fri 11 11, 1111"
*VENDOR "OpenRCX"
*PROGRAM "Parallel Extraction"
*VERSION "1.0"
*DESIGN_FLOW "NAME_SCOPE LOCAL" "PIN_CAP NONE"
*DIVIDER /
*DELIMITER :
*BUS_DELIMITER []
*T_UNIT 1 NS
*C_UNIT 1 PF
*R_UNIT 1 OHM
*L_UNIT 1 HENRY

*NAME_MAP
*1 FrameStrobe[0]
*2 FrameStrobe[10]
*3 FrameStrobe[11]
*4 FrameStrobe[12]
*5 FrameStrobe[13]
*6 FrameStrobe[14]
*7 FrameStrobe[15]
*8 FrameStrobe[16]
*9 FrameStrobe[17]
*10 FrameStrobe[18]
*11 FrameStrobe[19]
*12 FrameStrobe[1]
*13 FrameStrobe[2]
*14 FrameStrobe[3]
*15 FrameStrobe[4]
*16 FrameStrobe[5]
*17 FrameStrobe[6]
*18 FrameStrobe[7]
*19 FrameStrobe[8]
*20 FrameStrobe[9]
*21 FrameStrobe_O[0]
*22 FrameStrobe_O[10]
*23 FrameStrobe_O[11]
*24 FrameStrobe_O[12]
*25 FrameStrobe_O[13]
*26 FrameStrobe_O[14]
*27 FrameStrobe_O[15]
*28 FrameStrobe_O[16]
*29 FrameStrobe_O[17]
*30 FrameStrobe_O[18]
*31 FrameStrobe_O[19]
*32 FrameStrobe_O[1]
*33 FrameStrobe_O[2]
*34 FrameStrobe_O[3]
*35 FrameStrobe_O[4]
*36 FrameStrobe_O[5]
*37 FrameStrobe_O[6]
*38 FrameStrobe_O[7]
*39 FrameStrobe_O[8]
*40 FrameStrobe_O[9]
*41 N1END[0]
*42 N1END[1]
*43 N1END[2]
*44 N1END[3]
*45 N2END[0]
*46 N2END[1]
*47 N2END[2]
*48 N2END[3]
*49 N2END[4]
*50 N2END[5]
*51 N2END[6]
*52 N2END[7]
*53 N2MID[0]
*54 N2MID[1]
*55 N2MID[2]
*56 N2MID[3]
*57 N2MID[4]
*58 N2MID[5]
*59 N2MID[6]
*60 N2MID[7]
*61 N4END[0]
*62 N4END[10]
*63 N4END[11]
*64 N4END[12]
*65 N4END[13]
*66 N4END[14]
*67 N4END[15]
*68 N4END[1]
*69 N4END[2]
*70 N4END[3]
*71 N4END[4]
*72 N4END[5]
*73 N4END[6]
*74 N4END[7]
*75 N4END[8]
*76 N4END[9]
*77 S1BEG[0]
*78 S1BEG[1]
*79 S1BEG[2]
*80 S1BEG[3]
*81 S2BEG[0]
*82 S2BEG[1]
*83 S2BEG[2]
*84 S2BEG[3]
*85 S2BEG[4]
*86 S2BEG[5]
*87 S2BEG[6]
*88 S2BEG[7]
*89 S2BEGb[0]
*90 S2BEGb[1]
*91 S2BEGb[2]
*92 S2BEGb[3]
*93 S2BEGb[4]
*94 S2BEGb[5]
*95 S2BEGb[6]
*96 S2BEGb[7]
*97 S4BEG[0]
*98 S4BEG[10]
*99 S4BEG[11]
*100 S4BEG[12]
*101 S4BEG[13]
*102 S4BEG[14]
*103 S4BEG[15]
*104 S4BEG[1]
*105 S4BEG[2]
*106 S4BEG[3]
*107 S4BEG[4]
*108 S4BEG[5]
*109 S4BEG[6]
*110 S4BEG[7]
*111 S4BEG[8]
*112 S4BEG[9]
*113 UserCLK
*114 UserCLKo
*117 Inst_N_term_RAM_IO_switch_matrix\.S1BEG0
*118 Inst_N_term_RAM_IO_switch_matrix\.S1BEG1
*119 Inst_N_term_RAM_IO_switch_matrix\.S1BEG2
*120 Inst_N_term_RAM_IO_switch_matrix\.S1BEG3
*121 Inst_N_term_RAM_IO_switch_matrix\.S2BEG0
*122 Inst_N_term_RAM_IO_switch_matrix\.S2BEG1
*123 Inst_N_term_RAM_IO_switch_matrix\.S2BEG2
*124 Inst_N_term_RAM_IO_switch_matrix\.S2BEG3
*125 Inst_N_term_RAM_IO_switch_matrix\.S2BEG4
*126 Inst_N_term_RAM_IO_switch_matrix\.S2BEG5
*127 Inst_N_term_RAM_IO_switch_matrix\.S2BEG6
*128 Inst_N_term_RAM_IO_switch_matrix\.S2BEG7
*129 Inst_N_term_RAM_IO_switch_matrix\.S2BEGb0
*130 Inst_N_term_RAM_IO_switch_matrix\.S2BEGb1
*131 Inst_N_term_RAM_IO_switch_matrix\.S2BEGb2
*132 Inst_N_term_RAM_IO_switch_matrix\.S2BEGb3
*133 Inst_N_term_RAM_IO_switch_matrix\.S2BEGb4
*134 Inst_N_term_RAM_IO_switch_matrix\.S2BEGb5
*135 Inst_N_term_RAM_IO_switch_matrix\.S2BEGb6
*136 Inst_N_term_RAM_IO_switch_matrix\.S2BEGb7
*137 Inst_N_term_RAM_IO_switch_matrix\.S4BEG0
*138 Inst_N_term_RAM_IO_switch_matrix\.S4BEG1
*139 Inst_N_term_RAM_IO_switch_matrix\.S4BEG10
*140 Inst_N_term_RAM_IO_switch_matrix\.S4BEG11
*141 Inst_N_term_RAM_IO_switch_matrix\.S4BEG12
*142 Inst_N_term_RAM_IO_switch_matrix\.S4BEG13
*143 Inst_N_term_RAM_IO_switch_matrix\.S4BEG14
*144 Inst_N_term_RAM_IO_switch_matrix\.S4BEG15
*145 Inst_N_term_RAM_IO_switch_matrix\.S4BEG2
*146 Inst_N_term_RAM_IO_switch_matrix\.S4BEG3
*147 Inst_N_term_RAM_IO_switch_matrix\.S4BEG4
*148 Inst_N_term_RAM_IO_switch_matrix\.S4BEG5
*149 Inst_N_term_RAM_IO_switch_matrix\.S4BEG6
*150 Inst_N_term_RAM_IO_switch_matrix\.S4BEG7
*151 Inst_N_term_RAM_IO_switch_matrix\.S4BEG8
*152 Inst_N_term_RAM_IO_switch_matrix\.S4BEG9
*153 net1
*154 net10
*155 net100
*156 net101
*157 net102
*158 net103
*159 net104
*160 net105
*161 net106
*162 net107
*163 net108
*164 net109
*165 net11
*166 net110
*167 net111
*168 net112
*169 net113
*170 net114
*171 net12
*172 net13
*173 net14
*174 net15
*175 net16
*176 net17
*177 net18
*178 net19
*179 net2
*180 net20
*181 net21
*182 net22
*183 net23
*184 net24
*185 net25
*186 net26
*187 net27
*188 net28
*189 net29
*190 net3
*191 net30
*192 net31
*193 net32
*194 net33
*195 net34
*196 net35
*197 net36
*198 net37
*199 net38
*200 net39
*201 net4
*202 net40
*203 net41
*204 net42
*205 net43
*206 net44
*207 net45
*208 net46
*209 net47
*210 net48
*211 net49
*212 net5
*213 net50
*214 net51
*215 net52
*216 net53
*217 net54
*218 net55
*219 net56
*220 net57
*221 net58
*222 net59
*223 net6
*224 net60
*225 net61
*226 net62
*227 net63
*228 net64
*229 net65
*230 net66
*231 net67
*232 net68
*233 net69
*234 net7
*235 net70
*236 net71
*237 net72
*238 net73
*239 net74
*240 net75
*241 net76
*242 net77
*243 net78
*244 net79
*245 net8
*246 net80
*247 net81
*248 net82
*249 net83
*250 net84
*251 net85
*252 net86
*253 net87
*254 net88
*255 net89
*256 net9
*257 net90
*258 net91
*259 net92
*260 net93
*261 net94
*262 net95
*263 net96
*264 net97
*265 net98
*266 net99
*267 strobe_inbuf_0\.X
*268 strobe_inbuf_1\.X
*269 strobe_inbuf_10\.X
*270 strobe_inbuf_11\.X
*271 strobe_inbuf_12\.X
*272 strobe_inbuf_13\.X
*273 strobe_inbuf_14\.X
*274 strobe_inbuf_15\.X
*275 strobe_inbuf_16\.X
*276 strobe_inbuf_17\.X
*277 strobe_inbuf_18\.X
*278 strobe_inbuf_19\.X
*279 strobe_inbuf_2\.X
*280 strobe_inbuf_3\.X
*281 strobe_inbuf_4\.X
*282 strobe_inbuf_5\.X
*283 strobe_inbuf_6\.X
*284 strobe_inbuf_7\.X
*285 strobe_inbuf_8\.X
*286 strobe_inbuf_9\.X
*287 strobe_outbuf_0\.X
*288 strobe_outbuf_1\.X
*289 strobe_outbuf_10\.X
*290 strobe_outbuf_11\.X
*291 strobe_outbuf_12\.X
*292 strobe_outbuf_13\.X
*293 strobe_outbuf_14\.X
*294 strobe_outbuf_15\.X
*295 strobe_outbuf_16\.X
*296 strobe_outbuf_17\.X
*297 strobe_outbuf_18\.X
*298 strobe_outbuf_19\.X
*299 strobe_outbuf_2\.X
*300 strobe_outbuf_3\.X
*301 strobe_outbuf_4\.X
*302 strobe_outbuf_5\.X
*303 strobe_outbuf_6\.X
*304 strobe_outbuf_7\.X
*305 strobe_outbuf_8\.X
*306 strobe_outbuf_9\.X
*307 ANTENNA_1
*308 ANTENNA_2
*309 ANTENNA_3
*310 FILLER_0_0_110
*311 FILLER_0_0_126
*312 FILLER_0_0_136
*313 FILLER_0_0_151
*314 FILLER_0_0_253
*315 FILLER_0_0_3
*316 FILLER_0_0_85
*317 FILLER_0_1_10
*318 FILLER_0_1_138
*319 FILLER_0_1_169
*320 FILLER_0_1_231
*321 FILLER_0_1_241
*322 FILLER_0_1_254
*323 FILLER_0_1_3
*324 FILLER_0_1_57
*325 FILLER_0_2_102
*326 FILLER_0_2_106
*327 FILLER_0_2_110
*328 FILLER_0_2_128
*329 FILLER_0_2_133
*330 FILLER_0_2_139
*331 FILLER_0_2_141
*332 FILLER_0_2_149
*333 FILLER_0_2_15
*334 FILLER_0_2_158
*335 FILLER_0_2_195
*336 FILLER_0_2_215
*337 FILLER_0_2_227
*338 FILLER_0_2_253
*339 FILLER_0_2_27
*340 FILLER_0_2_29
*341 FILLER_0_2_37
*342 FILLER_0_2_42
*343 FILLER_0_2_57
*344 FILLER_0_2_65
*345 FILLER_0_2_69
*346 FILLER_0_2_81
*347 FILLER_0_2_85
*348 FILLER_0_2_89
*349 FILLER_0_2_96
*350 FILLER_0_3_105
*351 FILLER_0_3_111
*352 FILLER_0_3_113
*353 FILLER_0_3_125
*354 FILLER_0_3_137
*355 FILLER_0_3_149
*356 FILLER_0_3_15
*357 FILLER_0_3_161
*358 FILLER_0_3_167
*359 FILLER_0_3_169
*360 FILLER_0_3_181
*361 FILLER_0_3_193
*362 FILLER_0_3_205
*363 FILLER_0_3_217
*364 FILLER_0_3_223
*365 FILLER_0_3_225
*366 FILLER_0_3_237
*367 FILLER_0_3_253
*368 FILLER_0_3_27
*369 FILLER_0_3_3
*370 FILLER_0_3_39
*371 FILLER_0_3_51
*372 FILLER_0_3_55
*373 FILLER_0_3_57
*374 FILLER_0_3_69
*375 FILLER_0_3_81
*376 FILLER_0_3_93
*377 FILLER_0_4_109
*378 FILLER_0_4_121
*379 FILLER_0_4_133
*380 FILLER_0_4_139
*381 FILLER_0_4_141
*382 FILLER_0_4_15
*383 FILLER_0_4_153
*384 FILLER_0_4_165
*385 FILLER_0_4_177
*386 FILLER_0_4_189
*387 FILLER_0_4_195
*388 FILLER_0_4_197
*389 FILLER_0_4_209
*390 FILLER_0_4_221
*391 FILLER_0_4_233
*392 FILLER_0_4_245
*393 FILLER_0_4_251
*394 FILLER_0_4_253
*395 FILLER_0_4_27
*396 FILLER_0_4_29
*397 FILLER_0_4_3
*398 FILLER_0_4_41
*399 FILLER_0_4_53
*400 FILLER_0_4_65
*401 FILLER_0_4_77
*402 FILLER_0_4_83
*403 FILLER_0_4_85
*404 FILLER_0_4_97
*405 FILLER_0_5_105
*406 FILLER_0_5_111
*407 FILLER_0_5_113
*408 FILLER_0_5_125
*409 FILLER_0_5_137
*410 FILLER_0_5_149
*411 FILLER_0_5_15
*412 FILLER_0_5_161
*413 FILLER_0_5_167
*414 FILLER_0_5_169
*415 FILLER_0_5_181
*416 FILLER_0_5_193
*417 FILLER_0_5_205
*418 FILLER_0_5_217
*419 FILLER_0_5_223
*420 FILLER_0_5_225
*421 FILLER_0_5_237
*422 FILLER_0_5_249
*423 FILLER_0_5_27
*424 FILLER_0_5_3
*425 FILLER_0_5_39
*426 FILLER_0_5_51
*427 FILLER_0_5_55
*428 FILLER_0_5_57
*429 FILLER_0_5_69
*430 FILLER_0_5_81
*431 FILLER_0_5_93
*432 FILLER_0_6_109
*433 FILLER_0_6_121
*434 FILLER_0_6_133
*435 FILLER_0_6_139
*436 FILLER_0_6_141
*437 FILLER_0_6_15
*438 FILLER_0_6_153
*439 FILLER_0_6_165
*440 FILLER_0_6_177
*441 FILLER_0_6_189
*442 FILLER_0_6_195
*443 FILLER_0_6_197
*444 FILLER_0_6_209
*445 FILLER_0_6_221
*446 FILLER_0_6_233
*447 FILLER_0_6_245
*448 FILLER_0_6_253
*449 FILLER_0_6_27
*450 FILLER_0_6_29
*451 FILLER_0_6_3
*452 FILLER_0_6_41
*453 FILLER_0_6_53
*454 FILLER_0_6_65
*455 FILLER_0_6_77
*456 FILLER_0_6_83
*457 FILLER_0_6_85
*458 FILLER_0_6_97
*459 FILLER_0_7_106
*460 FILLER_0_7_111
*461 FILLER_0_7_113
*462 FILLER_0_7_117
*463 FILLER_0_7_121
*464 FILLER_0_7_126
*465 FILLER_0_7_132
*466 FILLER_0_7_137
*467 FILLER_0_7_145
*468 FILLER_0_7_15
*469 FILLER_0_7_152
*470 FILLER_0_7_160
*471 FILLER_0_7_164
*472 FILLER_0_7_169
*473 FILLER_0_7_173
*474 FILLER_0_7_177
*475 FILLER_0_7_185
*476 FILLER_0_7_191
*477 FILLER_0_7_203
*478 FILLER_0_7_208
*479 FILLER_0_7_220
*480 FILLER_0_7_225
*481 FILLER_0_7_237
*482 FILLER_0_7_249
*483 FILLER_0_7_253
*484 FILLER_0_7_27
*485 FILLER_0_7_3
*486 FILLER_0_7_39
*487 FILLER_0_7_51
*488 FILLER_0_7_55
*489 FILLER_0_7_60
*490 FILLER_0_7_68
*491 FILLER_0_7_73
*492 FILLER_0_7_81
*493 FILLER_0_7_86
*494 FILLER_0_7_94
*495 FILLER_0_7_98
*496 FILLER_0_8_104
*497 FILLER_0_8_109
*498 FILLER_0_8_115
*499 FILLER_0_8_119
*500 FILLER_0_8_124
*501 FILLER_0_8_135
*502 FILLER_0_8_139
*503 FILLER_0_8_141
*504 FILLER_0_8_15
*505 FILLER_0_8_150
*506 FILLER_0_8_158
*507 FILLER_0_8_162
*508 FILLER_0_8_170
*509 FILLER_0_8_175
*510 FILLER_0_8_183
*511 FILLER_0_8_189
*512 FILLER_0_8_195
*513 FILLER_0_8_197
*514 FILLER_0_8_206
*515 FILLER_0_8_218
*516 FILLER_0_8_230
*517 FILLER_0_8_242
*518 FILLER_0_8_253
*519 FILLER_0_8_27
*520 FILLER_0_8_29
*521 FILLER_0_8_3
*522 FILLER_0_8_41
*523 FILLER_0_8_53
*524 FILLER_0_8_57
*525 FILLER_0_8_65
*526 FILLER_0_8_71
*527 FILLER_0_8_79
*528 FILLER_0_8_85
*529 FILLER_0_8_96
*530 FILLER_0_9_110
*531 FILLER_0_9_113
*532 FILLER_0_9_126
*533 FILLER_0_9_136
*534 FILLER_0_9_162
*535 FILLER_0_9_17
*536 FILLER_0_9_178
*537 FILLER_0_9_188
*538 FILLER_0_9_206
*539 FILLER_0_9_217
*540 FILLER_0_9_228
*541 FILLER_0_9_240
*542 FILLER_0_9_25
*543 FILLER_0_9_253
*544 FILLER_0_9_35
*545 FILLER_0_9_42
*546 FILLER_0_9_48
*547 FILLER_0_9_55
*548 FILLER_0_9_60
*549 FILLER_0_9_71
*550 FILLER_0_9_85
*551 FILLER_0_9_9
*552 FILLER_0_9_97
*553 Inst_N_term_RAM_IO_switch_matrix\._00_
*554 Inst_N_term_RAM_IO_switch_matrix\._01_
*555 Inst_N_term_RAM_IO_switch_matrix\._02_
*556 Inst_N_term_RAM_IO_switch_matrix\._03_
*557 Inst_N_term_RAM_IO_switch_matrix\._04_
*558 Inst_N_term_RAM_IO_switch_matrix\._05_
*559 Inst_N_term_RAM_IO_switch_matrix\._06_
*560 Inst_N_term_RAM_IO_switch_matrix\._07_
*561 Inst_N_term_RAM_IO_switch_matrix\._08_
*562 Inst_N_term_RAM_IO_switch_matrix\._09_
*563 Inst_N_term_RAM_IO_switch_matrix\._10_
*564 Inst_N_term_RAM_IO_switch_matrix\._11_
*565 Inst_N_term_RAM_IO_switch_matrix\._12_
*566 Inst_N_term_RAM_IO_switch_matrix\._13_
*567 Inst_N_term_RAM_IO_switch_matrix\._14_
*568 Inst_N_term_RAM_IO_switch_matrix\._15_
*569 Inst_N_term_RAM_IO_switch_matrix\._16_
*570 Inst_N_term_RAM_IO_switch_matrix\._17_
*571 Inst_N_term_RAM_IO_switch_matrix\._18_
*572 Inst_N_term_RAM_IO_switch_matrix\._19_
*573 Inst_N_term_RAM_IO_switch_matrix\._20_
*574 Inst_N_term_RAM_IO_switch_matrix\._21_
*575 Inst_N_term_RAM_IO_switch_matrix\._22_
*576 Inst_N_term_RAM_IO_switch_matrix\._23_
*577 Inst_N_term_RAM_IO_switch_matrix\._24_
*578 Inst_N_term_RAM_IO_switch_matrix\._25_
*579 Inst_N_term_RAM_IO_switch_matrix\._26_
*580 Inst_N_term_RAM_IO_switch_matrix\._27_
*581 Inst_N_term_RAM_IO_switch_matrix\._28_
*582 Inst_N_term_RAM_IO_switch_matrix\._29_
*583 Inst_N_term_RAM_IO_switch_matrix\._30_
*584 Inst_N_term_RAM_IO_switch_matrix\._31_
*585 Inst_N_term_RAM_IO_switch_matrix\._32_
*586 Inst_N_term_RAM_IO_switch_matrix\._33_
*587 Inst_N_term_RAM_IO_switch_matrix\._34_
*588 Inst_N_term_RAM_IO_switch_matrix\._35_
*589 PHY_0
*590 PHY_1
*591 PHY_10
*592 PHY_11
*593 PHY_12
*594 PHY_13
*595 PHY_14
*596 PHY_15
*597 PHY_16
*598 PHY_17
*599 PHY_18
*600 PHY_19
*601 PHY_2
*602 PHY_3
*603 PHY_4
*604 PHY_5
*605 PHY_6
*606 PHY_7
*607 PHY_8
*608 PHY_9
*609 TAP_20
*610 TAP_21
*611 TAP_22
*612 TAP_23
*613 TAP_24
*614 TAP_25
*615 TAP_26
*616 TAP_27
*617 TAP_28
*618 TAP_29
*619 TAP_30
*620 TAP_31
*621 TAP_32
*622 TAP_33
*623 TAP_34
*624 TAP_35
*625 TAP_36
*626 TAP_37
*627 TAP_38
*628 TAP_39
*629 TAP_40
*630 TAP_41
*631 TAP_42
*632 TAP_43
*633 TAP_44
*634 TAP_45
*635 TAP_46
*636 TAP_47
*637 TAP_48
*638 TAP_49
*639 TAP_50
*640 TAP_51
*641 TAP_52
*642 TAP_53
*643 TAP_54
*644 TAP_55
*645 TAP_56
*646 TAP_57
*647 TAP_58
*648 TAP_59
*649 TAP_60
*650 TAP_61
*651 TAP_62
*652 TAP_63
*653 TAP_64
*654 TAP_65
*655 TAP_66
*656 TAP_67
*657 TAP_68
*658 TAP_69
*659 TAP_70
*660 TAP_71
*661 TAP_72
*662 TAP_73
*663 _00_
*664 _01_
*665 _02_
*666 _03_
*667 _04_
*668 _05_
*669 _06_
*670 _07_
*671 _08_
*672 _09_
*673 _10_
*674 _11_
*675 _12_
*676 _13_
*677 _14_
*678 _15_
*679 _16_
*680 _17_
*681 _18_
*682 _19_
*683 _20_
*684 _21_
*685 _22_
*686 _23_
*687 _24_
*688 _25_
*689 _26_
*690 _27_
*691 _28_
*692 _29_
*693 _30_
*694 _31_
*695 _32_
*696 _33_
*697 _34_
*698 _35_
*699 _36_
*700 _37_
*701 _38_
*702 _39_
*703 _40_
*704 _41_
*705 _42_
*706 _43_
*707 _44_
*708 _45_
*709 _46_
*710 _47_
*711 _48_
*712 _49_
*713 _50_
*714 _51_
*715 _52_
*716 _53_
*717 _54_
*718 _55_
*719 input1
*720 input10
*721 input11
*722 input12
*723 input13
*724 input14
*725 input15
*726 input16
*727 input17
*728 input18
*729 input19
*730 input2
*731 input20
*732 input21
*733 input22
*734 input23
*735 input24
*736 input25
*737 input26
*738 input27
*739 input28
*740 input29
*741 input3
*742 input30
*743 input31
*744 input32
*745 input33
*746 input34
*747 input35
*748 input36
*749 input37
*750 input38
*751 input39
*752 input4
*753 input40
*754 input41
*755 input42
*756 input43
*757 input44
*758 input45
*759 input46
*760 input47
*761 input48
*762 input49
*763 input5
*764 input50
*765 input51
*766 input52
*767 input53
*768 input54
*769 input55
*770 input56
*771 input57
*772 input6
*773 input7
*774 input8
*775 input9
*776 inst_clk_buf
*777 output100
*778 output101
*779 output102
*780 output103
*781 output104
*782 output105
*783 output106
*784 output107
*785 output108
*786 output109
*787 output110
*788 output111
*789 output112
*790 output113
*791 output114
*792 output58
*793 output59
*794 output60
*795 output61
*796 output62
*797 output63
*798 output64
*799 output65
*800 output66
*801 output67
*802 output68
*803 output69
*804 output70
*805 output71
*806 output72
*807 output73
*808 output74
*809 output75
*810 output76
*811 output77
*812 output78
*813 output79
*814 output80
*815 output81
*816 output82
*817 output83
*818 output84
*819 output85
*820 output86
*821 output87
*822 output88
*823 output89
*824 output90
*825 output91
*826 output92
*827 output93
*828 output94
*829 output95
*830 output96
*831 output97
*832 output98
*833 output99
*834 strobe_inbuf_0\._0_
*835 strobe_inbuf_1\._0_
*836 strobe_inbuf_10\._0_
*837 strobe_inbuf_11\._0_
*838 strobe_inbuf_12\._0_
*839 strobe_inbuf_13\._0_
*840 strobe_inbuf_14\._0_
*841 strobe_inbuf_15\._0_
*842 strobe_inbuf_16\._0_
*843 strobe_inbuf_17\._0_
*844 strobe_inbuf_18\._0_
*845 strobe_inbuf_19\._0_
*846 strobe_inbuf_2\._0_
*847 strobe_inbuf_3\._0_
*848 strobe_inbuf_4\._0_
*849 strobe_inbuf_5\._0_
*850 strobe_inbuf_6\._0_
*851 strobe_inbuf_7\._0_
*852 strobe_inbuf_8\._0_
*853 strobe_inbuf_9\._0_
*854 strobe_outbuf_0\._0_
*855 strobe_outbuf_1\._0_
*856 strobe_outbuf_10\._0_
*857 strobe_outbuf_11\._0_
*858 strobe_outbuf_12\._0_
*859 strobe_outbuf_13\._0_
*860 strobe_outbuf_14\._0_
*861 strobe_outbuf_15\._0_
*862 strobe_outbuf_16\._0_
*863 strobe_outbuf_17\._0_
*864 strobe_outbuf_18\._0_
*865 strobe_outbuf_19\._0_
*866 strobe_outbuf_2\._0_
*867 strobe_outbuf_3\._0_
*868 strobe_outbuf_4\._0_
*869 strobe_outbuf_5\._0_
*870 strobe_outbuf_6\._0_
*871 strobe_outbuf_7\._0_
*872 strobe_outbuf_8\._0_
*873 strobe_outbuf_9\._0_

*PORTS
FrameStrobe[0] I
FrameStrobe[10] I
FrameStrobe[11] I
FrameStrobe[12] I
FrameStrobe[13] I
FrameStrobe[14] I
FrameStrobe[15] I
FrameStrobe[16] I
FrameStrobe[17] I
FrameStrobe[18] I
FrameStrobe[19] I
FrameStrobe[1] I
FrameStrobe[2] I
FrameStrobe[3] I
FrameStrobe[4] I
FrameStrobe[5] I
FrameStrobe[6] I
FrameStrobe[7] I
FrameStrobe[8] I
FrameStrobe[9] I
FrameStrobe_O[0] O
FrameStrobe_O[10] O
FrameStrobe_O[11] O
FrameStrobe_O[12] O
FrameStrobe_O[13] O
FrameStrobe_O[14] O
FrameStrobe_O[15] O
FrameStrobe_O[16] O
FrameStrobe_O[17] O
FrameStrobe_O[18] O
FrameStrobe_O[19] O
FrameStrobe_O[1] O
FrameStrobe_O[2] O
FrameStrobe_O[3] O
FrameStrobe_O[4] O
FrameStrobe_O[5] O
FrameStrobe_O[6] O
FrameStrobe_O[7] O
FrameStrobe_O[8] O
FrameStrobe_O[9] O
N1END[0] I
N1END[1] I
N1END[2] I
N1END[3] I
N2END[0] I
N2END[1] I
N2END[2] I
N2END[3] I
N2END[4] I
N2END[5] I
N2END[6] I
N2END[7] I
N2MID[0] I
N2MID[1] I
N2MID[2] I
N2MID[3] I
N2MID[4] I
N2MID[5] I
N2MID[6] I
N2MID[7] I
N4END[0] I
N4END[10] I
N4END[11] I
N4END[12] I
N4END[13] I
N4END[14] I
N4END[15] I
N4END[1] I
N4END[2] I
N4END[3] I
N4END[4] I
N4END[5] I
N4END[6] I
N4END[7] I
N4END[8] I
N4END[9] I
S1BEG[0] O
S1BEG[1] O
S1BEG[2] O
S1BEG[3] O
S2BEG[0] O
S2BEG[1] O
S2BEG[2] O
S2BEG[3] O
S2BEG[4] O
S2BEG[5] O
S2BEG[6] O
S2BEG[7] O
S2BEGb[0] O
S2BEGb[1] O
S2BEGb[2] O
S2BEGb[3] O
S2BEGb[4] O
S2BEGb[5] O
S2BEGb[6] O
S2BEGb[7] O
S4BEG[0] O
S4BEG[10] O
S4BEG[11] O
S4BEG[12] O
S4BEG[13] O
S4BEG[14] O
S4BEG[15] O
S4BEG[1] O
S4BEG[2] O
S4BEG[3] O
S4BEG[4] O
S4BEG[5] O
S4BEG[6] O
S4BEG[7] O
S4BEG[8] O
S4BEG[9] O
UserCLK I
UserCLKo O

*D_NET *1 0.00246095
*CONN
*P FrameStrobe[0] I
*I *719:A I *D sky130_fd_sc_hd__clkbuf_1
*CAP
1 FrameStrobe[0] 0.000584021
2 *719:A 0.000584021
3 *719:A S4BEG[14] 2.60984e-05
4 *719:A *578:A 1.94879e-05
5 *719:A *715:A 3.69047e-06
6 *719:A *722:A 0.000137022
7 *719:A *771:A 0.00029912
8 *719:A *780:A 0.000320024
9 *719:A *152:28 0.00048746
10 *719:A *216:24 0
*RES
1 FrameStrobe[0] *719:A 28.3357 
*END

*D_NET *2 0.00243002
*CONN
*P FrameStrobe[10] I
*I *730:A I *D sky130_fd_sc_hd__buf_1
*CAP
1 FrameStrobe[10] 0.000722882
2 *730:A 0.000722882
3 *730:A *715:A 0
4 *730:A *716:A 0
5 *730:A *726:A 3.42457e-05
6 *730:A *731:A 0.000279715
7 *730:A *741:A 3.83905e-05
8 *730:A *840:A 0.000271345
9 *730:A *863:A 2.79092e-05
10 *730:A *174:12 0.00026695
11 *730:A *175:28 6.56976e-05
*RES
1 FrameStrobe[10] *730:A 37.1214 
*END

*D_NET *3 0.0025101
*CONN
*P FrameStrobe[11] I
*I *741:A I *D sky130_fd_sc_hd__buf_1
*CAP
1 FrameStrobe[11] 0.00056241
2 *741:A 0.00056241
3 *741:A *727:A 0.000221178
4 *741:A *731:A 0
5 *741:A *752:A 8.37898e-05
6 *741:A *772:A 0.000260574
7 *741:A *840:A 9.41642e-05
8 *741:A *842:A 2.99773e-05
9 *741:A *860:A 9.99461e-05
10 *741:A *861:A 9.67266e-05
11 *741:A *11:29 0.000173083
12 *741:A *174:12 6.53665e-05
13 *741:A *176:18 7.83587e-05
14 *741:A *293:16 5.74499e-06
15 *741:A *294:12 0.000137983
16 *730:A *741:A 3.83905e-05
*RES
1 FrameStrobe[11] *741:A 27.6214 
*END

*D_NET *4 0.00202409
*CONN
*P FrameStrobe[12] I
*I *752:A I *D sky130_fd_sc_hd__clkbuf_1
*CAP
1 FrameStrobe[12] 0.000420961
2 *752:A 0.000420961
3 *752:A *720:A 9.71197e-05
4 *752:A *727:A 9.62191e-05
5 *752:A *763:A 0.000427316
6 *752:A *842:A 0.000432148
7 *752:A *845:A 4.55802e-05
8 *741:A *752:A 8.37898e-05
*RES
1 FrameStrobe[12] *752:A 26.8536 
*END

*D_NET *5 0.00198021
*CONN
*P FrameStrobe[13] I
*I *763:A I *D sky130_fd_sc_hd__clkbuf_1
*CAP
1 FrameStrobe[13] 0.000378938
2 *763:A 0.000378938
3 *763:A *720:A 3.18988e-05
4 *763:A *729:A 0.000216212
5 *763:A *772:A 0.000271092
6 *763:A *845:A 0.000132396
7 *763:A *861:A 2.8046e-05
8 *763:A *177:24 0.000115369
9 *752:A *763:A 0.000427316
*RES
1 FrameStrobe[13] *763:A 26.0679 
*END

*D_NET *6 0.00320095
*CONN
*P FrameStrobe[14] I
*I *772:A I *D sky130_fd_sc_hd__clkbuf_1
*CAP
1 FrameStrobe[14] 0.000743841
2 *772:A 0.000743841
3 *772:A *716:A 3.48705e-05
4 *772:A *729:A 0.00034711
5 *772:A *773:A 6.16385e-05
6 *772:A *840:A 0.000349883
7 *772:A *861:A 9.25014e-06
8 *772:A *863:A 9.19472e-05
9 *772:A *178:16 0.000229443
10 *772:A *293:16 5.74562e-05
11 *741:A *772:A 0.000260574
12 *763:A *772:A 0.000271092
*RES
1 FrameStrobe[14] *772:A 32.2643 
*END

*D_NET *7 0.0025391
*CONN
*P FrameStrobe[15] I
*I *773:A I *D sky130_fd_sc_hd__clkbuf_1
*CAP
1 FrameStrobe[15] 0.000439789
2 *773:A 0.000439789
3 *773:A *774:A 0.00124567
4 *773:A *775:A 0.000119135
5 *773:A *178:16 8.81343e-05
6 *773:A *294:12 0.000144946
7 *772:A *773:A 6.16385e-05
*RES
1 FrameStrobe[15] *773:A 29.3714 
*END

*D_NET *8 0.00289645
*CONN
*P FrameStrobe[16] I
*I *774:A I *D sky130_fd_sc_hd__clkbuf_1
*CAP
1 FrameStrobe[16] 0.000717832
2 *774:A 0.000717832
3 *774:A *775:A 6.31298e-05
4 *774:A *841:A 9.60875e-05
5 *774:A *11:29 5.58941e-05
6 *773:A *774:A 0.00124567
*RES
1 FrameStrobe[16] *774:A 31.9607 
*END

*D_NET *9 0.00266368
*CONN
*P FrameStrobe[17] I
*I *775:A I *D sky130_fd_sc_hd__clkbuf_1
*CAP
1 FrameStrobe[17] 0.00106421
2 *775:A 0.00106421
3 *775:A *720:A 0.000352995
4 *775:A *844:A 0
5 *775:A *294:12 0
6 *773:A *775:A 0.000119135
7 *774:A *775:A 6.31298e-05
*RES
1 FrameStrobe[17] *775:A 34.9071 
*END

*D_NET *10 0.00265167
*CONN
*P FrameStrobe[18] I
*I *720:A I *D sky130_fd_sc_hd__clkbuf_1
*CAP
1 FrameStrobe[18] 0.000824281
2 *720:A 0.000824281
3 *720:A *841:A 9.41642e-05
4 *720:A *845:A 6.31193e-05
5 *720:A *11:29 0.000195559
6 *720:A *201:24 0.0001026
7 *720:A *212:16 6.5647e-05
8 *752:A *720:A 9.71197e-05
9 *763:A *720:A 3.18988e-05
10 *775:A *720:A 0.000352995
*RES
1 FrameStrobe[18] *720:A 33.9429 
*END

*D_NET *11 0.0039524
*CONN
*P FrameStrobe[19] I
*I *721:A I *D sky130_fd_sc_hd__clkbuf_1
*CAP
1 FrameStrobe[19] 0.00116538
2 *721:A 0
3 *11:29 0.00116538
4 *11:29 *716:A 4.22135e-06
5 *11:29 *842:A 0.000300792
6 *11:29 *845:A 9.60939e-05
7 *11:29 *180:28 4.31391e-05
8 *11:29 *190:14 0.000658697
9 *11:29 *212:16 9.41642e-05
10 *720:A *11:29 0.000195559
11 *741:A *11:29 0.000173083
12 *774:A *11:29 5.58941e-05
*RES
1 FrameStrobe[19] *11:29 45 
2 *11:29 *721:A 9.3 
*END

*D_NET *12 0.00228426
*CONN
*P FrameStrobe[1] I
*I *722:A I *D sky130_fd_sc_hd__buf_1
*CAP
1 FrameStrobe[1] 0.000437207
2 *722:A 0.000437207
3 *722:A S4BEG[15] 7.48301e-06
4 *722:A *580:A 0.000109778
5 *722:A *588:A 0.000232399
6 *722:A *698:A 0.000575696
7 *722:A *723:A 9.51455e-05
8 *722:A *725:A 6.56534e-05
9 *722:A *781:A 0.000186669
10 *719:A *722:A 0.000137022
*RES
1 FrameStrobe[1] *722:A 26.3 
*END

*D_NET *13 0.0022902
*CONN
*P FrameStrobe[2] I
*I *723:A I *D sky130_fd_sc_hd__buf_1
*CAP
1 FrameStrobe[2] 0.000528718
2 *723:A 0.000528718
3 *723:A S4BEG[15] 6.05161e-06
4 *723:A *580:A 9.40676e-05
5 *723:A *588:A 0.000230482
6 *723:A *724:A 0.000167322
7 *723:A *725:A 0.000113089
8 *723:A *726:A 0
9 *723:A *771:A 0
10 *723:A *190:14 0.000493174
11 *723:A *216:24 3.34295e-05
12 *722:A *723:A 9.51455e-05
*RES
1 FrameStrobe[2] *723:A 27.1571 
*END

*D_NET *14 0.00246567
*CONN
*P FrameStrobe[3] I
*I *724:A I *D sky130_fd_sc_hd__buf_1
*CAP
1 FrameStrobe[3] 0.000377631
2 *724:A 0.000377631
3 *724:A *580:A 0
4 *724:A *725:A 0.00035871
5 *724:A *728:A 6.71947e-05
6 *724:A *731:A 4.67304e-05
7 *724:A *172:12 8.00806e-05
8 *724:A *173:18 0.000335465
9 *724:A *176:26 0.000654903
10 *723:A *724:A 0.000167322
*RES
1 FrameStrobe[3] *724:A 35.55 
*END

*D_NET *15 0.00238103
*CONN
*P FrameStrobe[4] I
*I *725:A I *D sky130_fd_sc_hd__buf_1
*CAP
1 FrameStrobe[4] 0.000602268
2 *725:A 0.000602268
3 *725:A *580:A 0
4 *725:A *726:A 0.000188967
5 *725:A *728:A 5.17614e-05
6 *725:A *842:A 0
7 *725:A *171:14 2.27681e-05
8 *725:A *173:18 0.000321703
9 *725:A *190:14 5.38388e-05
10 *722:A *725:A 6.56534e-05
11 *723:A *725:A 0.000113089
12 *724:A *725:A 0.00035871
*RES
1 FrameStrobe[4] *725:A 35.8 
*END

*D_NET *16 0.00172489
*CONN
*P FrameStrobe[5] I
*I *726:A I *D sky130_fd_sc_hd__buf_1
*CAP
1 FrameStrobe[5] 0.000525691
2 *726:A 0.000525691
3 *726:A *580:A 0.000288216
4 *726:A *727:A 0.000162084
5 *726:A *728:A 0
6 *726:A *731:A 0
7 *726:A *862:A 0
8 *726:A *190:14 0
9 *726:A *216:24 0
10 *723:A *726:A 0
11 *725:A *726:A 0.000188967
12 *730:A *726:A 3.42457e-05
*RES
1 FrameStrobe[5] *726:A 24.2286 
*END

*D_NET *17 0.00239073
*CONN
*P FrameStrobe[6] I
*I *727:A I *D sky130_fd_sc_hd__buf_1
*CAP
1 FrameStrobe[6] 0.000400431
2 *727:A 0.000400431
3 *727:A *728:A 0
4 *727:A *842:A 3.34366e-05
5 *727:A *173:18 0.000364744
6 *727:A *176:18 1.81212e-05
7 *727:A *178:16 0.000235013
8 *727:A *178:20 0.000459075
9 *726:A *727:A 0.000162084
10 *741:A *727:A 0.000221178
11 *752:A *727:A 9.62191e-05
*RES
1 FrameStrobe[6] *727:A 35.675 
*END

*D_NET *18 0.00218232
*CONN
*P FrameStrobe[7] I
*I *728:A I *D sky130_fd_sc_hd__buf_1
*CAP
1 FrameStrobe[7] 0.000677483
2 *728:A 0.000677483
3 *728:A *729:A 3.92645e-05
4 *728:A *731:A 2.04825e-05
5 *728:A *842:A 5.79706e-05
6 *728:A *171:14 3.92854e-05
7 *728:A *172:12 8.00806e-05
8 *728:A *176:18 3.35916e-05
9 *728:A *190:14 0.000437719
10 *724:A *728:A 6.71947e-05
11 *725:A *728:A 5.17614e-05
12 *726:A *728:A 0
13 *727:A *728:A 0
*RES
1 FrameStrobe[7] *728:A 27.7107 
*END

*D_NET *19 0.00202077
*CONN
*P FrameStrobe[8] I
*I *729:A I *D sky130_fd_sc_hd__buf_1
*CAP
1 FrameStrobe[8] 0.000438663
2 *729:A 0.000438663
3 *729:A *731:A 9.05388e-05
4 *729:A *174:14 0.000181796
5 *729:A *177:24 0.000115369
6 *729:A *178:16 0.000153149
7 *728:A *729:A 3.92645e-05
8 *763:A *729:A 0.000216212
9 *772:A *729:A 0.00034711
*RES
1 FrameStrobe[8] *729:A 35.425 
*END

*D_NET *20 0.00154461
*CONN
*P FrameStrobe[9] I
*I *731:A I *D sky130_fd_sc_hd__buf_1
*CAP
1 FrameStrobe[9] 0.000492105
2 *731:A 0.000492105
3 *731:A *843:A 0
4 *731:A *173:18 0.000122933
5 *724:A *731:A 4.67304e-05
6 *726:A *731:A 0
7 *728:A *731:A 2.04825e-05
8 *729:A *731:A 9.05388e-05
9 *730:A *731:A 0.000279715
10 *741:A *731:A 0
*RES
1 FrameStrobe[9] *731:A 23.1571 
*END

*D_NET *21 0.00108996
*CONN
*P FrameStrobe_O[0] O
*I *792:X O *D sky130_fd_sc_hd__buf_2
*CAP
1 FrameStrobe_O[0] 0.000480047
2 *792:X 0.000480047
3 FrameStrobe_O[0] UserCLKo 0
4 FrameStrobe_O[0] *791:A 2.89016e-05
5 FrameStrobe_O[0] *792:A 0.00010096
*RES
1 *792:X FrameStrobe_O[0] 22.4607 
*END

*D_NET *22 0.000792874
*CONN
*P FrameStrobe_O[10] O
*I *793:X O *D sky130_fd_sc_hd__clkbuf_4
*CAP
1 FrameStrobe_O[10] 0.000396437
2 *793:X 0.000396437
*RES
1 *793:X FrameStrobe_O[10] 21.6393 
*END

*D_NET *23 0.000752682
*CONN
*P FrameStrobe_O[11] O
*I *794:X O *D sky130_fd_sc_hd__clkbuf_4
*CAP
1 FrameStrobe_O[11] 0.000376341
2 *794:X 0.000376341
*RES
1 *794:X FrameStrobe_O[11] 21.2286 
*END

*D_NET *24 0.000873257
*CONN
*P FrameStrobe_O[12] O
*I *795:X O *D sky130_fd_sc_hd__clkbuf_4
*CAP
1 FrameStrobe_O[12] 0.000436628
2 *795:X 0.000436628
3 FrameStrobe_O[12] FrameStrobe_O[13] 0
*RES
1 *795:X FrameStrobe_O[12] 22.4607 
*END

*D_NET *25 0.000752682
*CONN
*P FrameStrobe_O[13] O
*I *796:X O *D sky130_fd_sc_hd__clkbuf_4
*CAP
1 FrameStrobe_O[13] 0.000376341
2 *796:X 0.000376341
3 FrameStrobe_O[12] FrameStrobe_O[13] 0
*RES
1 *796:X FrameStrobe_O[13] 21.2286 
*END

*D_NET *26 0.00095364
*CONN
*P FrameStrobe_O[14] O
*I *797:X O *D sky130_fd_sc_hd__clkbuf_4
*CAP
1 FrameStrobe_O[14] 0.00047682
2 *797:X 0.00047682
3 FrameStrobe_O[14] FrameStrobe_O[15] 0
*RES
1 *797:X FrameStrobe_O[14] 23.2821 
*END

*D_NET *27 0.000833065
*CONN
*P FrameStrobe_O[15] O
*I *798:X O *D sky130_fd_sc_hd__buf_2
*CAP
1 FrameStrobe_O[15] 0.000416533
2 *798:X 0.000416533
3 FrameStrobe_O[14] FrameStrobe_O[15] 0
*RES
1 *798:X FrameStrobe_O[15] 22.05 
*END

*D_NET *28 0.000833065
*CONN
*P FrameStrobe_O[16] O
*I *799:X O *D sky130_fd_sc_hd__buf_2
*CAP
1 FrameStrobe_O[16] 0.000416533
2 *799:X 0.000416533
*RES
1 *799:X FrameStrobe_O[16] 22.05 
*END

*D_NET *29 0.000931523
*CONN
*P FrameStrobe_O[17] O
*I *800:X O *D sky130_fd_sc_hd__clkbuf_4
*CAP
1 FrameStrobe_O[17] 0.000465761
2 *800:X 0.000465761
3 FrameStrobe_O[17] *715:A 0
4 FrameStrobe_O[17] *716:A 0
*RES
1 *800:X FrameStrobe_O[17] 22.7464 
*END

*D_NET *30 0.00101173
*CONN
*P FrameStrobe_O[18] O
*I *801:X O *D sky130_fd_sc_hd__clkbuf_4
*CAP
1 FrameStrobe_O[18] 0.000448756
2 *801:X 0.000448756
3 FrameStrobe_O[18] FrameStrobe_O[19] 0
4 FrameStrobe_O[18] *714:A 1.32552e-05
5 FrameStrobe_O[18] *801:A 0.00010096
*RES
1 *801:X FrameStrobe_O[18] 22.05 
*END

*D_NET *31 0.00147987
*CONN
*P FrameStrobe_O[19] O
*I *802:X O *D sky130_fd_sc_hd__clkbuf_4
*CAP
1 FrameStrobe_O[19] 0.000723199
2 *802:X 0.000723199
3 FrameStrobe_O[19] *717:A 0
4 FrameStrobe_O[19] *294:12 3.34672e-05
5 FrameStrobe_O[18] FrameStrobe_O[19] 0
*RES
1 *802:X FrameStrobe_O[19] 26.6571 
*END

*D_NET *32 0.00134782
*CONN
*P FrameStrobe_O[1] O
*I *803:X O *D sky130_fd_sc_hd__clkbuf_4
*CAP
1 FrameStrobe_O[1] 0.00058039
2 *803:X 0.00058039
3 FrameStrobe_O[1] FrameStrobe_O[2] 0
4 FrameStrobe_O[1] *792:A 0.000187041
*RES
1 *803:X FrameStrobe_O[1] 24.6393 
*END

*D_NET *33 0.000757231
*CONN
*P FrameStrobe_O[2] O
*I *804:X O *D sky130_fd_sc_hd__clkbuf_4
*CAP
1 FrameStrobe_O[2] 0.000378615
2 *804:X 0.000378615
3 FrameStrobe_O[1] FrameStrobe_O[2] 0
*RES
1 *804:X FrameStrobe_O[2] 21.2286 
*END

*D_NET *34 0.000924072
*CONN
*P FrameStrobe_O[3] O
*I *805:X O *D sky130_fd_sc_hd__clkbuf_4
*CAP
1 FrameStrobe_O[3] 0.000462036
2 *805:X 0.000462036
*RES
1 *805:X FrameStrobe_O[3] 22.7643 
*END

*D_NET *35 0.00101617
*CONN
*P FrameStrobe_O[4] O
*I *806:X O *D sky130_fd_sc_hd__clkbuf_4
*CAP
1 FrameStrobe_O[4] 0.000479786
2 *806:X 0.000479786
3 FrameStrobe_O[4] *806:A 5.65955e-05
*RES
1 *806:X FrameStrobe_O[4] 22.9964 
*END

*D_NET *36 0.000833065
*CONN
*P FrameStrobe_O[5] O
*I *807:X O *D sky130_fd_sc_hd__clkbuf_4
*CAP