*SPEF "ieee 1481-1999"
*DESIGN "S_term_single"
*DATE "11:11:11 Fri 11 11, 1111"
*VENDOR "OpenRCX"
*PROGRAM "Parallel Extraction"
*VERSION "1.0"
*DESIGN_FLOW "NAME_SCOPE LOCAL" "PIN_CAP NONE"
*DIVIDER /
*DELIMITER :
*BUS_DELIMITER []
*T_UNIT 1 NS
*C_UNIT 1 PF
*R_UNIT 1 OHM
*L_UNIT 1 HENRY

*NAME_MAP
*1 net147
*2 FrameStrobe[0]
*3 FrameStrobe[10]
*4 FrameStrobe[11]
*5 FrameStrobe[12]
*6 FrameStrobe[13]
*7 FrameStrobe[14]
*8 FrameStrobe[15]
*9 FrameStrobe[16]
*10 FrameStrobe[17]
*11 FrameStrobe[18]
*12 FrameStrobe[19]
*13 FrameStrobe[1]
*14 FrameStrobe[2]
*15 FrameStrobe[3]
*16 FrameStrobe[4]
*17 FrameStrobe[5]
*18 FrameStrobe[6]
*19 FrameStrobe[7]
*20 FrameStrobe[8]
*21 FrameStrobe[9]
*22 FrameStrobe_O[0]
*23 FrameStrobe_O[10]
*24 FrameStrobe_O[11]
*25 FrameStrobe_O[12]
*26 FrameStrobe_O[13]
*27 FrameStrobe_O[14]
*28 FrameStrobe_O[15]
*29 FrameStrobe_O[16]
*30 FrameStrobe_O[17]
*31 FrameStrobe_O[18]
*32 FrameStrobe_O[19]
*33 FrameStrobe_O[1]
*34 FrameStrobe_O[2]
*35 FrameStrobe_O[3]
*36 FrameStrobe_O[4]
*37 FrameStrobe_O[5]
*38 FrameStrobe_O[6]
*39 FrameStrobe_O[7]
*40 FrameStrobe_O[8]
*41 FrameStrobe_O[9]
*42 N1BEG[0]
*43 N1BEG[1]
*44 N1BEG[2]
*45 N1BEG[3]
*46 N2BEG[0]
*47 N2BEG[1]
*48 N2BEG[2]
*49 N2BEG[3]
*50 N2BEG[4]
*51 N2BEG[5]
*52 N2BEG[6]
*53 N2BEG[7]
*54 N2BEGb[0]
*55 N2BEGb[1]
*56 N2BEGb[2]
*57 N2BEGb[3]
*58 N2BEGb[4]
*59 N2BEGb[5]
*60 N2BEGb[6]
*61 N2BEGb[7]
*62 N4BEG[0]
*63 N4BEG[10]
*64 N4BEG[11]
*65 N4BEG[12]
*66 N4BEG[13]
*67 N4BEG[14]
*68 N4BEG[15]
*69 N4BEG[1]
*70 N4BEG[2]
*71 N4BEG[3]
*72 N4BEG[4]
*73 N4BEG[5]
*74 N4BEG[6]
*75 N4BEG[7]
*76 N4BEG[8]
*77 N4BEG[9]
*78 NN4BEG[0]
*79 NN4BEG[10]
*80 NN4BEG[11]
*81 NN4BEG[12]
*82 NN4BEG[13]
*83 NN4BEG[14]
*84 NN4BEG[15]
*85 NN4BEG[1]
*86 NN4BEG[2]
*87 NN4BEG[3]
*88 NN4BEG[4]
*89 NN4BEG[5]
*90 NN4BEG[6]
*91 NN4BEG[7]
*92 NN4BEG[8]
*93 NN4BEG[9]
*94 S1END[0]
*95 S1END[1]
*96 S1END[2]
*97 S1END[3]
*98 S2END[0]
*99 S2END[1]
*100 S2END[2]
*101 S2END[3]
*102 S2END[4]
*103 S2END[5]
*104 S2END[6]
*105 S2END[7]
*106 S2MID[0]
*107 S2MID[1]
*108 S2MID[2]
*109 S2MID[3]
*110 S2MID[4]
*111 S2MID[5]
*112 S2MID[6]
*113 S2MID[7]
*114 S4END[0]
*115 S4END[10]
*116 S4END[11]
*117 S4END[12]
*118 S4END[13]
*119 S4END[14]
*120 S4END[15]
*121 S4END[1]
*122 S4END[2]
*123 S4END[3]
*124 S4END[4]
*125 S4END[5]
*126 S4END[6]
*127 S4END[7]
*128 S4END[8]
*129 S4END[9]
*130 SS4END[0]
*131 SS4END[10]
*132 SS4END[11]
*133 SS4END[12]
*134 SS4END[13]
*135 SS4END[14]
*136 SS4END[15]
*137 SS4END[1]
*138 SS4END[2]
*139 SS4END[3]
*140 SS4END[4]
*141 SS4END[5]
*142 SS4END[6]
*143 SS4END[7]
*144 SS4END[8]
*145 SS4END[9]
*146 UserCLK
*147 UserCLKo
*150 net1
*151 net10
*152 net100
*153 net101
*154 net102
*155 net103
*156 net104
*157 net105
*158 net106
*159 net107
*160 net108
*161 net109
*162 net11
*163 net110
*164 net111
*165 net112
*166 net113
*167 net114
*168 net115
*169 net116
*170 net117
*171 net118
*172 net119
*173 net12
*174 net120
*175 net121
*176 net122
*177 net123
*178 net124
*179 net125
*180 net126
*181 net127
*182 net128
*183 net129
*184 net13
*185 net130
*186 net131
*187 net132
*188 net133
*189 net134
*190 net135
*191 net136
*192 net137
*193 net138
*194 net139
*195 net14
*196 net140
*197 net141
*198 net142
*199 net143
*200 net144
*201 net145
*202 net146
*203 net15
*204 net16
*205 net17
*206 net18
*207 net19
*208 net2
*209 net20
*210 net21
*211 net22
*212 net23
*213 net24
*214 net25
*215 net26
*216 net27
*217 net28
*218 net29
*219 net3
*220 net30
*221 net31
*222 net32
*223 net33
*224 net34
*225 net35
*226 net36
*227 net37
*228 net38
*229 net39
*230 net4
*231 net40
*232 net41
*233 net42
*234 net43
*235 net44
*236 net45
*237 net46
*238 net47
*239 net48
*240 net49
*241 net5
*242 net50
*243 net51
*244 net52
*245 net53
*246 net54
*247 net55
*248 net56
*249 net57
*250 net58
*251 net59
*252 net6
*253 net60
*254 net61
*255 net62
*256 net63
*257 net64
*258 net65
*259 net66
*260 net67
*261 net68
*262 net69
*263 net7
*264 net70
*265 net71
*266 net72
*267 net73
*268 net74
*269 net75
*270 net76
*271 net77
*272 net78
*273 net79
*274 net8
*275 net80
*276 net81
*277 net82
*278 net83
*279 net84
*280 net85
*281 net86
*282 net87
*283 net88
*284 net89
*285 net9
*286 net90
*287 net91
*288 net92
*289 net93
*290 net94
*291 net95
*292 net96
*293 net97
*294 net98
*295 net99
*296 ANTENNA_1
*297 ANTENNA_2
*298 ANTENNA_3
*299 ANTENNA_4
*300 FILLER_0_0_110
*301 FILLER_0_0_113
*302 FILLER_0_0_117
*303 FILLER_0_0_121
*304 FILLER_0_0_13
*305 FILLER_0_0_133
*306 FILLER_0_0_139
*307 FILLER_0_0_144
*308 FILLER_0_0_150
*309 FILLER_0_0_162
*310 FILLER_0_0_167
*311 FILLER_0_0_172
*312 FILLER_0_0_184
*313 FILLER_0_0_190
*314 FILLER_0_0_197
*315 FILLER_0_0_209
*316 FILLER_0_0_213
*317 FILLER_0_0_221
*318 FILLER_0_0_225
*319 FILLER_0_0_236
*320 FILLER_0_0_248
*321 FILLER_0_0_25
*322 FILLER_0_0_253
*323 FILLER_0_0_259
*324 FILLER_0_0_271
*325 FILLER_0_0_279
*326 FILLER_0_0_284
*327 FILLER_0_0_296
*328 FILLER_0_0_305
*329 FILLER_0_0_309
*330 FILLER_0_0_321
*331 FILLER_0_0_328
*332 FILLER_0_0_33
*333 FILLER_0_0_337
*334 FILLER_0_0_345
*335 FILLER_0_0_351
*336 FILLER_0_0_363
*337 FILLER_0_0_368
*338 FILLER_0_0_374
*339 FILLER_0_0_386
*340 FILLER_0_0_391
*341 FILLER_0_0_393
*342 FILLER_0_0_397
*343 FILLER_0_0_402
*344 FILLER_0_0_414
*345 FILLER_0_0_421
*346 FILLER_0_0_433
*347 FILLER_0_0_439
*348 FILLER_0_0_443
*349 FILLER_0_0_447
*350 FILLER_0_0_449
*351 FILLER_0_0_45
*352 FILLER_0_0_457
*353 FILLER_0_0_53
*354 FILLER_0_0_67
*355 FILLER_0_0_71
*356 FILLER_0_0_82
*357 FILLER_0_0_85
*358 FILLER_0_0_93
*359 FILLER_0_0_98
*360 FILLER_0_1_105
*361 FILLER_0_1_111
*362 FILLER_0_1_113
*363 FILLER_0_1_125
*364 FILLER_0_1_137
*365 FILLER_0_1_149
*366 FILLER_0_1_15
*367 FILLER_0_1_161
*368 FILLER_0_1_167
*369 FILLER_0_1_169
*370 FILLER_0_1_181
*371 FILLER_0_1_189
*372 FILLER_0_1_194
*373 FILLER_0_1_206
*374 FILLER_0_1_218
*375 FILLER_0_1_225
*376 FILLER_0_1_240
*377 FILLER_0_1_252
*378 FILLER_0_1_263
*379 FILLER_0_1_27
*380 FILLER_0_1_275
*381 FILLER_0_1_279
*382 FILLER_0_1_281
*383 FILLER_0_1_293
*384 FILLER_0_1_3
*385 FILLER_0_1_305
*386 FILLER_0_1_317
*387 FILLER_0_1_329
*388 FILLER_0_1_335
*389 FILLER_0_1_337
*390 FILLER_0_1_349
*391 FILLER_0_1_361
*392 FILLER_0_1_373
*393 FILLER_0_1_385
*394 FILLER_0_1_39
*395 FILLER_0_1_391
*396 FILLER_0_1_393
*397 FILLER_0_1_405
*398 FILLER_0_1_417
*399 FILLER_0_1_429
*400 FILLER_0_1_441
*401 FILLER_0_1_447
*402 FILLER_0_1_449
*403 FILLER_0_1_461
*404 FILLER_0_1_51
*405 FILLER_0_1_55
*406 FILLER_0_1_57
*407 FILLER_0_1_69
*408 FILLER_0_1_81
*409 FILLER_0_1_93
*410 FILLER_0_2_109
*411 FILLER_0_2_121
*412 FILLER_0_2_133
*413 FILLER_0_2_139
*414 FILLER_0_2_141
*415 FILLER_0_2_15
*416 FILLER_0_2_153
*417 FILLER_0_2_165
*418 FILLER_0_2_177
*419 FILLER_0_2_189
*420 FILLER_0_2_195
*421 FILLER_0_2_197
*422 FILLER_0_2_209
*423 FILLER_0_2_221
*424 FILLER_0_2_233
*425 FILLER_0_2_245
*426 FILLER_0_2_251
*427 FILLER_0_2_253
*428 FILLER_0_2_265
*429 FILLER_0_2_27
*430 FILLER_0_2_277
*431 FILLER_0_2_289
*432 FILLER_0_2_29
*433 FILLER_0_2_3
*434 FILLER_0_2_301
*435 FILLER_0_2_307
*436 FILLER_0_2_309
*437 FILLER_0_2_321
*438 FILLER_0_2_333
*439 FILLER_0_2_345
*440 FILLER_0_2_357
*441 FILLER_0_2_363
*442 FILLER_0_2_365
*443 FILLER_0_2_377
*444 FILLER_0_2_389
*445 FILLER_0_2_401
*446 FILLER_0_2_41
*447 FILLER_0_2_413
*448 FILLER_0_2_419
*449 FILLER_0_2_421
*450 FILLER_0_2_433
*451 FILLER_0_2_445
*452 FILLER_0_2_457
*453 FILLER_0_2_461
*454 FILLER_0_2_53
*455 FILLER_0_2_65
*456 FILLER_0_2_77
*457 FILLER_0_2_83
*458 FILLER_0_2_85
*459 FILLER_0_2_97
*460 FILLER_0_3_105
*461 FILLER_0_3_111
*462 FILLER_0_3_113
*463 FILLER_0_3_125
*464 FILLER_0_3_137
*465 FILLER_0_3_149
*466 FILLER_0_3_15
*467 FILLER_0_3_161
*468 FILLER_0_3_167
*469 FILLER_0_3_169
*470 FILLER_0_3_181
*471 FILLER_0_3_193
*472 FILLER_0_3_205
*473 FILLER_0_3_217
*474 FILLER_0_3_223
*475 FILLER_0_3_225
*476 FILLER_0_3_237
*477 FILLER_0_3_249
*478 FILLER_0_3_261
*479 FILLER_0_3_27
*480 FILLER_0_3_273
*481 FILLER_0_3_279
*482 FILLER_0_3_281
*483 FILLER_0_3_293
*484 FILLER_0_3_3
*485 FILLER_0_3_305
*486 FILLER_0_3_317
*487 FILLER_0_3_329
*488 FILLER_0_3_335
*489 FILLER_0_3_337
*490 FILLER_0_3_349
*491 FILLER_0_3_361
*492 FILLER_0_3_373
*493 FILLER_0_3_385
*494 FILLER_0_3_39
*495 FILLER_0_3_391
*496 FILLER_0_3_393
*497 FILLER_0_3_405
*498 FILLER_0_3_417
*499 FILLER_0_3_429
*500 FILLER_0_3_441
*501 FILLER_0_3_447
*502 FILLER_0_3_449
*503 FILLER_0_3_461
*504 FILLER_0_3_51
*505 FILLER_0_3_55
*506 FILLER_0_3_57
*507 FILLER_0_3_69
*508 FILLER_0_3_81
*509 FILLER_0_3_93
*510 FILLER_0_4_109
*511 FILLER_0_4_121
*512 FILLER_0_4_133
*513 FILLER_0_4_139
*514 FILLER_0_4_141
*515 FILLER_0_4_15
*516 FILLER_0_4_153
*517 FILLER_0_4_165
*518 FILLER_0_4_177
*519 FILLER_0_4_189
*520 FILLER_0_4_195
*521 FILLER_0_4_197
*522 FILLER_0_4_209
*523 FILLER_0_4_221
*524 FILLER_0_4_233
*525 FILLER_0_4_245
*526 FILLER_0_4_251
*527 FILLER_0_4_253
*528 FILLER_0_4_265
*529 FILLER_0_4_27
*530 FILLER_0_4_277
*531 FILLER_0_4_289
*532 FILLER_0_4_29
*533 FILLER_0_4_3
*534 FILLER_0_4_301
*535 FILLER_0_4_307
*536 FILLER_0_4_309
*537 FILLER_0_4_321
*538 FILLER_0_4_333
*539 FILLER_0_4_345
*540 FILLER_0_4_357
*541 FILLER_0_4_363
*542 FILLER_0_4_365
*543 FILLER_0_4_377
*544 FILLER_0_4_389
*545 FILLER_0_4_401
*546 FILLER_0_4_41
*547 FILLER_0_4_413
*548 FILLER_0_4_419
*549 FILLER_0_4_421
*550 FILLER_0_4_433
*551 FILLER_0_4_445
*552 FILLER_0_4_457
*553 FILLER_0_4_461
*554 FILLER_0_4_53
*555 FILLER_0_4_65
*556 FILLER_0_4_77
*557 FILLER_0_4_83
*558 FILLER_0_4_85
*559 FILLER_0_4_97
*560 FILLER_0_5_105
*561 FILLER_0_5_111
*562 FILLER_0_5_113
*563 FILLER_0_5_125
*564 FILLER_0_5_137
*565 FILLER_0_5_149
*566 FILLER_0_5_15
*567 FILLER_0_5_161
*568 FILLER_0_5_167
*569 FILLER_0_5_169
*570 FILLER_0_5_181
*571 FILLER_0_5_193
*572 FILLER_0_5_205
*573 FILLER_0_5_213
*574 FILLER_0_5_217
*575 FILLER_0_5_223
*576 FILLER_0_5_225
*577 FILLER_0_5_237
*578 FILLER_0_5_249
*579 FILLER_0_5_261
*580 FILLER_0_5_27
*581 FILLER_0_5_273
*582 FILLER_0_5_279
*583 FILLER_0_5_281
*584 FILLER_0_5_293
*585 FILLER_0_5_3
*586 FILLER_0_5_305
*587 FILLER_0_5_317
*588 FILLER_0_5_329
*589 FILLER_0_5_335
*590 FILLER_0_5_337
*591 FILLER_0_5_349
*592 FILLER_0_5_361
*593 FILLER_0_5_373
*594 FILLER_0_5_385
*595 FILLER_0_5_39
*596 FILLER_0_5_391
*597 FILLER_0_5_393
*598 FILLER_0_5_405
*599 FILLER_0_5_417
*600 FILLER_0_5_429
*601 FILLER_0_5_441
*602 FILLER_0_5_447
*603 FILLER_0_5_449
*604 FILLER_0_5_461
*605 FILLER_0_5_51
*606 FILLER_0_5_55
*607 FILLER_0_5_57
*608 FILLER_0_5_69
*609 FILLER_0_5_81
*610 FILLER_0_5_93
*611 FILLER_0_6_109
*612 FILLER_0_6_121
*613 FILLER_0_6_130
*614 FILLER_0_6_138
*615 FILLER_0_6_141
*616 FILLER_0_6_15
*617 FILLER_0_6_153
*618 FILLER_0_6_165
*619 FILLER_0_6_177
*620 FILLER_0_6_189
*621 FILLER_0_6_195
*622 FILLER_0_6_197
*623 FILLER_0_6_209
*624 FILLER_0_6_221
*625 FILLER_0_6_233
*626 FILLER_0_6_245
*627 FILLER_0_6_251
*628 FILLER_0_6_253
*629 FILLER_0_6_265
*630 FILLER_0_6_27
*631 FILLER_0_6_277
*632 FILLER_0_6_289
*633 FILLER_0_6_29
*634 FILLER_0_6_3
*635 FILLER_0_6_301
*636 FILLER_0_6_307
*637 FILLER_0_6_309
*638 FILLER_0_6_321
*639 FILLER_0_6_333
*640 FILLER_0_6_345
*641 FILLER_0_6_357
*642 FILLER_0_6_363
*643 FILLER_0_6_365
*644 FILLER_0_6_377
*645 FILLER_0_6_389
*646 FILLER_0_6_401
*647 FILLER_0_6_41
*648 FILLER_0_6_413
*649 FILLER_0_6_419
*650 FILLER_0_6_421
*651 FILLER_0_6_433
*652 FILLER_0_6_445
*653 FILLER_0_6_457
*654 FILLER_0_6_461
*655 FILLER_0_6_53
*656 FILLER_0_6_65
*657 FILLER_0_6_77
*658 FILLER_0_6_83
*659 FILLER_0_6_85
*660 FILLER_0_6_97
*661 FILLER_0_7_104
*662 FILLER_0_7_109
*663 FILLER_0_7_122
*664 FILLER_0_7_134
*665 FILLER_0_7_15
*666 FILLER_0_7_150
*667 FILLER_0_7_157
*668 FILLER_0_7_161
*669 FILLER_0_7_166
*670 FILLER_0_7_172
*671 FILLER_0_7_182
*672 FILLER_0_7_193
*673 FILLER_0_7_197
*674 FILLER_0_7_209
*675 FILLER_0_7_213
*676 FILLER_0_7_221
*677 FILLER_0_7_228
*678 FILLER_0_7_233
*679 FILLER_0_7_238
*680 FILLER_0_7_250
*681 FILLER_0_7_262
*682 FILLER_0_7_27
*683 FILLER_0_7_271
*684 FILLER_0_7_279
*685 FILLER_0_7_281
*686 FILLER_0_7_293
*687 FILLER_0_7_3
*688 FILLER_0_7_305
*689 FILLER_0_7_317
*690 FILLER_0_7_329
*691 FILLER_0_7_335
*692 FILLER_0_7_337
*693 FILLER_0_7_349
*694 FILLER_0_7_357
*695 FILLER_0_7_361
*696 FILLER_0_7_373
*697 FILLER_0_7_385
*698 FILLER_0_7_39
*699 FILLER_0_7_391
*700 FILLER_0_7_399
*701 FILLER_0_7_411
*702 FILLER_0_7_423
*703 FILLER_0_7_435
*704 FILLER_0_7_447
*705 FILLER_0_7_449
*706 FILLER_0_7_461
*707 FILLER_0_7_47
*708 FILLER_0_7_57
*709 FILLER_0_7_69
*710 FILLER_0_7_76
*711 FILLER_0_8_15
*712 FILLER_0_8_192
*713 FILLER_0_8_197
*714 FILLER_0_8_225
*715 FILLER_0_8_233
*716 FILLER_0_8_237
*717 FILLER_0_8_241
*718 FILLER_0_8_249
*719 FILLER_0_8_253
*720 FILLER_0_8_257
*721 FILLER_0_8_267
*722 FILLER_0_8_27
*723 FILLER_0_8_282
*724 FILLER_0_8_286
*725 FILLER_0_8_29
*726 FILLER_0_8_290
*727 FILLER_0_8_294
*728 FILLER_0_8_298
*729 FILLER_0_8_3
*730 FILLER_0_8_303
*731 FILLER_0_8_309
*732 FILLER_0_8_313
*733 FILLER_0_8_320
*734 FILLER_0_8_326
*735 FILLER_0_8_330
*736 FILLER_0_8_338
*737 FILLER_0_8_343
*738 FILLER_0_8_347
*739 FILLER_0_8_363
*740 FILLER_0_8_371
*741 FILLER_0_8_41
*742 FILLER_0_8_433
*743 FILLER_0_8_445
*744 FILLER_0_8_457
*745 FILLER_0_8_461
*746 FILLER_0_8_85
*747 FILLER_0_8_94
*748 FILLER_0_9_113
*749 FILLER_0_9_117
*750 FILLER_0_9_121
*751 FILLER_0_9_15
*752 FILLER_0_9_197
*753 FILLER_0_9_210
*754 FILLER_0_9_27
*755 FILLER_0_9_29
*756 FILLER_0_9_3
*757 FILLER_0_9_355
*758 FILLER_0_9_363
*759 FILLER_0_9_37
*760 FILLER_0_9_439
*761 FILLER_0_9_447
*762 FILLER_0_9_449
*763 FILLER_0_9_461
*764 FILLER_0_9_88
*765 FILLER_0_9_92
*766 PHY_0
*767 PHY_1
*768 PHY_10
*769 PHY_11
*770 PHY_12
*771 PHY_13
*772 PHY_14
*773 PHY_15
*774 PHY_16
*775 PHY_17
*776 PHY_18
*777 PHY_19
*778 PHY_2
*779 PHY_3
*780 PHY_4
*781 PHY_5
*782 PHY_6
*783 PHY_7
*784 PHY_8
*785 PHY_9
*786 S_term_single_147
*787 TAP_100
*788 TAP_101
*789 TAP_102
*790 TAP_103
*791 TAP_104
*792 TAP_105
*793 TAP_106
*794 TAP_107
*795 TAP_108
*796 TAP_109
*797 TAP_110
*798 TAP_111
*799 TAP_112
*800 TAP_113
*801 TAP_114
*802 TAP_115
*803 TAP_20
*804 TAP_21
*805 TAP_22
*806 TAP_23
*807 TAP_24
*808 TAP_25
*809 TAP_26
*810 TAP_27
*811 TAP_28
*812 TAP_29
*813 TAP_30
*814 TAP_31
*815 TAP_32
*816 TAP_33
*817 TAP_34
*818 TAP_35
*819 TAP_36
*820 TAP_37
*821 TAP_38
*822 TAP_39
*823 TAP_40
*824 TAP_41
*825 TAP_42
*826 TAP_43
*827 TAP_44
*828 TAP_45
*829 TAP_46
*830 TAP_47
*831 TAP_48
*832 TAP_49
*833 TAP_50
*834 TAP_51
*835 TAP_52
*836 TAP_53
*837 TAP_54
*838 TAP_55
*839 TAP_56
*840 TAP_57
*841 TAP_58
*842 TAP_59
*843 TAP_60
*844 TAP_61
*845 TAP_62
*846 TAP_63
*847 TAP_64
*848 TAP_65
*849 TAP_66
*850 TAP_67
*851 TAP_68
*852 TAP_69
*853 TAP_70
*854 TAP_71
*855 TAP_72
*856 TAP_73
*857 TAP_74
*858 TAP_75
*859 TAP_76
*860 TAP_77
*861 TAP_78
*862 TAP_79
*863 TAP_80
*864 TAP_81
*865 TAP_82
*866 TAP_83
*867 TAP_84
*868 TAP_85
*869 TAP_86
*870 TAP_87
*871 TAP_88
*872 TAP_89
*873 TAP_90
*874 TAP_91
*875 TAP_92
*876 TAP_93
*877 TAP_94
*878 TAP_95
*879 TAP_96
*880 TAP_97
*881 TAP_98
*882 TAP_99
*883 _01_
*884 _02_
*885 _03_
*886 _04_
*887 _05_
*888 _06_
*889 _07_
*890 _08_
*891 _09_
*892 _10_
*893 _11_
*894 _12_
*895 _13_
*896 _14_
*897 _15_
*898 _16_
*899 _17_
*900 _18_
*901 _19_
*902 _20_
*903 _21_
*904 _22_
*905 _23_
*906 _24_
*907 _25_
*908 _26_
*909 _27_
*910 _28_
*911 _29_
*912 _30_
*913 _31_
*914 _32_
*915 _33_
*916 _34_
*917 _35_
*918 _36_
*919 _37_
*920 _38_
*921 _39_
*922 _40_
*923 _41_
*924 _42_
*925 _43_
*926 _44_
*927 _45_
*928 _46_
*929 _47_
*930 _48_
*931 _49_
*932 _50_
*933 _51_
*934 _52_
*935 _53_
*936 _54_
*937 _55_
*938 _56_
*939 _57_
*940 _58_
*941 _59_
*942 _60_
*943 _61_
*944 _62_
*945 _63_
*946 _64_
*947 _65_
*948 _66_
*949 _67_
*950 _68_
*951 _69_
*952 _70_
*953 _71_
*954 _72_
*955 _73_
*956 input1
*957 input10
*958 input11
*959 input12
*960 input13
*961 input14
*962 input15
*963 input16
*964 input17
*965 input18
*966 input19
*967 input2
*968 input20
*969 input21
*970 input22
*971 input23
*972 input24
*973 input25
*974 input26
*975 input27
*976 input28
*977 input29
*978 input3
*979 input30
*980 input31
*981 input32
*982 input33
*983 input34
*984 input35
*985 input36
*986 input37
*987 input38
*988 input39
*989 input4
*990 input40
*991 input41
*992 input42
*993 input43
*994 input44
*995 input45
*996 input46
*997 input47
*998 input48
*999 input49
*1000 input5
*1001 input50
*1002 input51
*1003 input52
*1004 input53
*1005 input54
*1006 input55
*1007 input56
*1008 input57
*1009 input58
*1010 input59
*1011 input6
*1012 input60
*1013 input61
*1014 input62
*1015 input63
*1016 input64
*1017 input65
*1018 input66
*1019 input67
*1020 input68
*1021 input69
*1022 input7
*1023 input70
*1024 input71
*1025 input72
*1026 input73
*1027 input8
*1028 input9
*1029 output100
*1030 output101
*1031 output102
*1032 output103
*1033 output104
*1034 output105
*1035 output106
*1036 output107
*1037 output108
*1038 output109
*1039 output110
*1040 output111
*1041 output112
*1042 output113
*1043 output114
*1044 output115
*1045 output116
*1046 output117
*1047 output118
*1048 output119
*1049 output120
*1050 output121
*1051 output122
*1052 output123
*1053 output124
*1054 output125
*1055 output126
*1056 output127
*1057 output128
*1058 output129
*1059 output130
*1060 output131
*1061 output132
*1062 output133
*1063 output134
*1064 output135
*1065 output136
*1066 output137
*1067 output138
*1068 output139
*1069 output140
*1070 output141
*1071 output142
*1072 output143
*1073 output144
*1074 output145
*1075 output146
*1076 output74
*1077 output75
*1078 output76
*1079 output77
*1080 output78
*1081 output79
*1082 output80
*1083 output81
*1084 output82
*1085 output83
*1086 output84
*1087 output85
*1088 output86
*1089 output87
*1090 output88
*1091 output89
*1092 output90
*1093 output91
*1094 output92
*1095 output93
*1096 output94
*1097 output95
*1098 output96
*1099 output97
*1100 output98
*1101 output99

*PORTS
Co O
FrameStrobe[0] I
FrameStrobe[10] I
FrameStrobe[11] I
FrameStrobe[12] I
FrameStrobe[13] I
FrameStrobe[14] I
FrameStrobe[15] I
FrameStrobe[16] I
FrameStrobe[17] I
FrameStrobe[18] I
FrameStrobe[19] I
FrameStrobe[1] I
FrameStrobe[2] I
FrameStrobe[3] I
FrameStrobe[4] I
FrameStrobe[5] I
FrameStrobe[6] I
FrameStrobe[7] I
FrameStrobe[8] I
FrameStrobe[9] I
FrameStrobe_O[0] O
FrameStrobe_O[10] O
FrameStrobe_O[11] O
FrameStrobe_O[12] O
FrameStrobe_O[13] O
FrameStrobe_O[14] O
FrameStrobe_O[15] O
FrameStrobe_O[16] O
FrameStrobe_O[17] O
FrameStrobe_O[18] O
FrameStrobe_O[19] O
FrameStrobe_O[1] O
FrameStrobe_O[2] O
FrameStrobe_O[3] O
FrameStrobe_O[4] O
FrameStrobe_O[5] O
FrameStrobe_O[6] O
FrameStrobe_O[7] O
FrameStrobe_O[8] O
FrameStrobe_O[9] O
N1BEG[0] O
N1BEG[1] O
N1BEG[2] O
N1BEG[3] O
N2BEG[0] O
N2BEG[1] O
N2BEG[2] O
N2BEG[3] O
N2BEG[4] O
N2BEG[5] O
N2BEG[6] O
N2BEG[7] O
N2BEGb[0] O
N2BEGb[1] O
N2BEGb[2] O
N2BEGb[3] O
N2BEGb[4] O
N2BEGb[5] O
N2BEGb[6] O
N2BEGb[7] O
N4BEG[0] O
N4BEG[10] O
N4BEG[11] O
N4BEG[12] O
N4BEG[13] O
N4BEG[14] O
N4BEG[15] O
N4BEG[1] O
N4BEG[2] O
N4BEG[3] O
N4BEG[4] O
N4BEG[5] O
N4BEG[6] O
N4BEG[7] O
N4BEG[8] O
N4BEG[9] O
NN4BEG[0] O
NN4BEG[10] O
NN4BEG[11] O
NN4BEG[12] O
NN4BEG[13] O
NN4BEG[14] O
NN4BEG[15] O
NN4BEG[1] O
NN4BEG[2] O
NN4BEG[3] O
NN4BEG[4] O
NN4BEG[5] O
NN4BEG[6] O
NN4BEG[7] O
NN4BEG[8] O
NN4BEG[9] O
S1END[0] I
S1END[1] I
S1END[2] I
S1END[3] I
S2END[0] I
S2END[1] I
S2END[2] I
S2END[3] I
S2END[4] I
S2END[5] I
S2END[6] I
S2END[7] I
S2MID[0] I
S2MID[1] I
S2MID[2] I
S2MID[3] I
S2MID[4] I
S2MID[5] I
S2MID[6] I
S2MID[7] I
S4END[0] I
S4END[10] I
S4END[11] I
S4END[12] I
S4END[13] I
S4END[14] I
S4END[15] I
S4END[1] I
S4END[2] I
S4END[3] I
S4END[4] I
S4END[5] I
S4END[6] I
S4END[7] I
S4END[8] I
S4END[9] I
SS4END[0] I
SS4END[10] I
SS4END[11] I
SS4END[12] I
SS4END[13] I
SS4END[14] I
SS4END[15] I
SS4END[1] I
SS4END[2] I
SS4END[3] I
SS4END[4] I
SS4END[5] I
SS4END[6] I
SS4END[7] I
SS4END[8] I
SS4END[9] I
UserCLK I
UserCLKo O

*D_NET *1 0.00245629
*CONN
*P Co O
*I *786:LO O *D sky130_fd_sc_hd__conb_1
*CAP
1 Co 0.000542209
2 *786:LO 0.000291284
3 *1:12 0.000833493
4 Co FrameStrobe_O[0] 0.000342315
5 Co FrameStrobe_O[1] 0
6 Co FrameStrobe_O[2] 0
7 Co UserCLKo 0.000342315
8 Co *136:11 0
9 Co *202:14 0
10 Co *252:14 6.48049e-05
11 Co *256:8 4.21594e-06
12 Co *268:16 0
13 *1:12 *136:11 2.32101e-05
14 *1:12 *202:14 0
15 *1:12 *252:14 1.24376e-05
*RES
1 *786:LO *1:12 42.9507 
2 *1:12 Co 16.7993 
*END

*D_NET *2 0.00142619
*CONN
*P FrameStrobe[0] I
*I *956:A I *D sky130_fd_sc_hd__clkbuf_2
*CAP
1 FrameStrobe[0] 0.000713093
2 *956:A 0
3 *2:9 0.000713093
*RES
1 FrameStrobe[0] *2:9 29.3964 
2 *2:9 *956:A 23 
*END

*D_NET *3 0.00135158
*CONN
*P FrameStrobe[10] I
*I *967:A I *D sky130_fd_sc_hd__clkbuf_1
*CAP
1 FrameStrobe[10] 0.000675791
2 *967:A 0
3 *3:11 0.000675791
*RES
1 FrameStrobe[10] *3:11 28.9407 
2 *3:11 *967:A 23 
*END

*D_NET *4 0.00160642
*CONN
*P FrameStrobe[11] I
*I *978:A I *D sky130_fd_sc_hd__clkbuf_1
*CAP
1 FrameStrobe[11] 0.000629756
2 *978:A 0
3 *4:9 0.000629756
4 *4:9 *219:8 2.79004e-05
5 *4:9 *284:6 0.000228909
6 *4:9 *286:14 9.01041e-05
*RES
1 FrameStrobe[11] *4:9 29.7486 
2 *4:9 *978:A 23 
*END

*D_NET *5 0.00124633
*CONN
*P FrameStrobe[12] I
*I *989:A I *D sky130_fd_sc_hd__buf_1
*CAP
1 FrameStrobe[12] 0.000623166
2 *989:A 0
3 *5:9 0.000623166
*RES
1 FrameStrobe[12] *5:9 27.8429 
2 *5:9 *989:A 23 
*END

*D_NET *6 0.00129743
*CONN
*P FrameStrobe[13] I
*I *1000:A I *D sky130_fd_sc_hd__buf_1
*CAP
1 FrameStrobe[13] 0.000648716
2 *1000:A 0
3 *6:9 0.000648716
4 *6:9 *267:20 0
*RES
1 FrameStrobe[13] *6:9 27.8429 
2 *6:9 *1000:A 23 
*END

*D_NET *7 0.00169401
*CONN
*P FrameStrobe[14] I
*I *1011:A I *D sky130_fd_sc_hd__clkbuf_1
*CAP
1 FrameStrobe[14] 0.000652997
2 *1011:A 0
3 *7:11 0.000652997
4 *7:11 *230:12 0.000188934
5 *7:11 *241:10 0.000188934
6 *7:11 *284:20 1.01436e-05
*RES
1 FrameStrobe[14] *7:11 29.8936 
2 *7:11 *1011:A 23 
*END

*D_NET *8 0.00150629
*CONN
*P FrameStrobe[15] I
*I *1022:A I *D sky130_fd_sc_hd__clkbuf_1
*CAP
1 FrameStrobe[15] 0.000586635
2 *1022:A 0
3 *8:9 0.000586635
4 *8:9 *195:22 4.90994e-05
5 *8:9 *230:12 0.00014196
6 *8:9 *241:10 0.00014196
*RES
1 FrameStrobe[15] *8:9 28.7957 
2 *8:9 *1022:A 23 
*END

*D_NET *9 0.00125613
*CONN
*P FrameStrobe[16] I
*I *1027:A I *D sky130_fd_sc_hd__clkbuf_1
*CAP
1 FrameStrobe[16] 0.000628064
2 *1027:A 0
3 *9:9 0.000628064
4 *9:9 *219:18 0
*RES
1 FrameStrobe[16] *9:9 28.7957 
2 *9:9 *1027:A 23 
*END

*D_NET *10 0.00124899
*CONN
*P FrameStrobe[17] I
*I *1028:A I *D sky130_fd_sc_hd__clkbuf_1
*CAP
1 FrameStrobe[17] 0.000624496
2 *1028:A 0
3 *10:9 0.000624496
*RES
1 FrameStrobe[17] *10:9 28.7957 
2 *10:9 *1028:A 23 
*END

*D_NET *11 0.00124899
*CONN
*P FrameStrobe[18] I
*I *957:A I *D sky130_fd_sc_hd__clkbuf_1
*CAP
1 FrameStrobe[18] 0.000624496
2 *957:A 0
3 *11:9 0.000624496
*RES
1 FrameStrobe[18] *11:9 28.7957 
2 *11:9 *957:A 23 
*END

*D_NET *12 0.00116551
*CONN
*P FrameStrobe[19] I
*I *958:A I *D sky130_fd_sc_hd__clkbuf_1
*CAP
1 FrameStrobe[19] 0.000582757
2 *958:A 0
3 *12:9 0.000582757
*RES
1 FrameStrobe[19] *12:9 27.8429 
2 *12:9 *958:A 23 
*END

*D_NET *13 0.00166739
*CONN
*P FrameStrobe[1] I
*I *959:A I *D sky130_fd_sc_hd__dlymetal6s2s_1
*CAP
1 FrameStrobe[1] 0.000754775
2 *959:A 0
3 *13:9 0.000754775
4 *13:9 *150:6 0.000157838
*RES
1 FrameStrobe[1] *13:9 31.6543 
2 *13:9 *959:A 23 
*END

*D_NET *14 0.00118573
*CONN
*P FrameStrobe[2] I
*I *960:A I *D sky130_fd_sc_hd__dlymetal6s2s_1
*CAP
1 FrameStrobe[2] 0.000592866
2 *960:A 0
3 *14:9 0.000592866
*RES
1 FrameStrobe[2] *14:9 27.8429 
2 *14:9 *960:A 23 
*END

*D_NET *15 0.0012243
*CONN
*P FrameStrobe[3] I
*I *961:A I *D sky130_fd_sc_hd__buf_1
*CAP
1 FrameStrobe[3] 0.00059048
2 *961:A 0
3 *15:9 0.00059048
4 *15:9 *195:8 4.334e-05
*RES
1 FrameStrobe[3] *15:9 27.8429 
2 *15:9 *961:A 23 
*END

*D_NET *16 0.00128937
*CONN
*P FrameStrobe[4] I
*I *962:A I *D sky130_fd_sc_hd__clkbuf_1
*CAP
1 FrameStrobe[4] 0.000644685
2 *962:A 0
3 *16:9 0.000644685
*RES
1 FrameStrobe[4] *16:9 28.7957 
2 *16:9 *962:A 23 
*END

*D_NET *17 0.00136544
*CONN
*P FrameStrobe[5] I
*I *963:A I *D sky130_fd_sc_hd__clkbuf_1
*CAP
1 FrameStrobe[5] 0.000654197
2 *963:A 0
3 *17:9 0.000654197
4 *17:9 *883:A 5.70419e-05
*RES
1 FrameStrobe[5] *17:9 28.7957 
2 *17:9 *963:A 23 
*END

*D_NET *18 0.00133821
*CONN
*P FrameStrobe[6] I
*I *964:A I *D sky130_fd_sc_hd__clkbuf_1
*CAP
1 FrameStrobe[6] 0.000669107
2 *964:A 0
3 *18:9 0.000669107
*RES
1 FrameStrobe[6] *18:9 28.7957 
2 *18:9 *964:A 23 
*END

*D_NET *19 0.00146853
*CONN
*P FrameStrobe[7] I
*I *965:A I *D sky130_fd_sc_hd__clkbuf_1
*CAP
1 FrameStrobe[7] 0.000623838
2 *965:A 0
3 *19:9 0.000623838
4 *19:9 *284:6 0.00014196
5 *19:9 *286:8 7.88926e-05
*RES
1 FrameStrobe[7] *19:9 28.7957 
2 *19:9 *965:A 23 
*END

*D_NET *20 0.00130953
*CONN
*P FrameStrobe[8] I
*I *966:A I *D sky130_fd_sc_hd__clkbuf_1
*CAP
1 FrameStrobe[8] 0.000654765
2 *966:A 0
3 *20:9 0.000654765
*RES
1 FrameStrobe[8] *20:9 28.7957 
2 *20:9 *966:A 23 
*END

*D_NET *21 0.00131205
*CONN
*P FrameStrobe[9] I
*I *968:A I *D sky130_fd_sc_hd__clkbuf_1
*CAP
1 FrameStrobe[9] 0.000656024
2 *968:A 0
3 *21:9 0.000656024
*RES
1 FrameStrobe[9] *21:9 28.7957 
2 *21:9 *968:A 23 
*END

*D_NET *22 0.0016792
*CONN
*P FrameStrobe_O[0] O
*I *1076:X O *D sky130_fd_sc_hd__clkbuf_4
*CAP
1 FrameStrobe_O[0] 0.000271445
2 *1076:X 0.000175352
3 *22:10 0.000446797
4 FrameStrobe_O[0] FrameStrobe_O[1] 0.000344801
5 *22:10 *33:10 9.84851e-05
6 Co FrameStrobe_O[0] 0.000342315
*RES
1 *1076:X *22:10 40.6721 
2 *22:10 FrameStrobe_O[0] 12.2214 
*END

*D_NET *23 0.00235844
*CONN
*P FrameStrobe_O[10] O
*I *1077:X O *D sky130_fd_sc_hd__clkbuf_4
*CAP
1 FrameStrobe_O[10] 0.000423564
2 *1077:X 0.000151911
3 *23:8 0.000575475
4 FrameStrobe_O[10] FrameStrobe_O[11] 0.000427118
5 FrameStrobe_O[10] FrameStrobe_O[8] 0
6 FrameStrobe_O[10] FrameStrobe_O[9] 0.000348312
7 FrameStrobe_O[10] *270:14 0
8 FrameStrobe_O[10] *275:8 2.5415e-05
9 *23:8 *24:18 0.000219383
10 *23:8 *40:12 5.37348e-06
11 *23:8 *275:14 0.000181892
*RES
1 *1077:X *23:8 41.9564 
2 *23:8 FrameStrobe_O[10] 15.7429 
*END

*D_NET *24 0.00356577
*CONN
*P FrameStrobe_O[11] O
*I *1078:X O *D sky130_fd_sc_hd__clkbuf_4
*CAP
1 FrameStrobe_O[11] 0.000437619
2 *1078:X 0.000170154
3 *24:18 0.000674918
4 *24:12 0.000407454
5 FrameStrobe_O[11] FrameStrobe_O[12] 0.000356495
6 FrameStrobe_O[11] *270:14 0
7 FrameStrobe_O[11] *287:18 0.000241365
8 *24:12 FrameStrobe_O[15] 4.80826e-05
9 *24:12 *1080:A 1.60262e-07
10 *24:12 *28:14 6.63366e-05
11 *24:18 *25:8 0.000139723
12 *24:18 *26:22 0.000211537
13 *24:18 *273:22 0.000137368
14 *24:18 *275:14 2.80512e-05
15 FrameStrobe_O[10] FrameStrobe_O[11] 0.000427118
16 *23:8 *24:18 0.000219383
*RES
1 *1078:X *24:12 41.0243 
2 *24:12 *24:18 36.3386 
3 *24:18 FrameStrobe_O[11] 16.095 
*END

*D_NET *25 0.00254054
*CONN
*P FrameStrobe_O[12] O
*I *1079:X O *D sky130_fd_sc_hd__clkbuf_4
*CAP
1 FrameStrobe_O[12] 0.000498304
2 *1079:X 0.000224653
3 *25:8 0.000722957
4 FrameStrobe_O[12] FrameStrobe_O[13] 0.00014545
5 FrameStrobe_O[12] *26:22 0
6 FrameStrobe_O[12] *269:10 3.92407e-05
7 FrameStrobe_O[12] *276:10 0.000271392
8 FrameStrobe_O[12] *287:18 0.000127569
9 FrameStrobe_O[12] *289:20 1.47563e-05
10 FrameStrobe_O[11] FrameStrobe_O[12] 0.000356495
11 *24:18 *25:8 0.000139723
*RES
1 *1079:X *25:8 41.0036 
2 *25:8 FrameStrobe_O[12] 16.7993 
*END

*D_NET *26 0.00323886
*CONN
*P FrameStrobe_O[13] O
*I *1080:X O *D sky130_fd_sc_hd__clkbuf_4
*CAP
1 FrameStrobe_O[13] 9.27055e-05
2 *1080:X 5.61785e-05
3 *26:22 0.00068166
4 *26:8 0.000645133
5 FrameStrobe_O[13] FrameStrobe_O[14] 0.000141234
6 *26:8 FrameStrobe_O[17] 0.000138727
7 *26:8 *1080:A 0.000138727
8 *26:22 FrameStrobe_O[14] 0.000410097
9 *26:22 FrameStrobe_O[15] 0.000183782
10 *26:22 *27:16 2.64704e-05
11 *26:22 *28:14 3.16784e-05
12 *26:22 *273:22 2.46906e-05
13 *26:22 *275:14 0.000215428
14 *26:22 *289:20 9.53602e-05
15 FrameStrobe_O[12] FrameStrobe_O[13] 0.00014545
16 FrameStrobe_O[12] *26:22 0
17 *24:18 *26:22 0.000211537
*RES
1 *1080:X *26:8 39.9057 
2 *26:8 *26:22 47.1825 
3 *26:22 FrameStrobe_O[13] 5.0025 
*END

*D_NET *27 0.00270325
*CONN
*P FrameStrobe_O[14] O
*I *1081:X O *D sky130_fd_sc_hd__clkbuf_4
*CAP
1 FrameStrobe_O[14] 0.000388736
2 *1081:X 0.000355039
3 *27:16 0.000743775
4 FrameStrobe_O[14] FrameStrobe_O[15] 0.000367446
5 FrameStrobe_O[14] *28:14 2.40392e-06
6 *27:16 *28:14 8.29264e-05
7 *27:16 *273:22 0.000177359
8 *27:16 *289:20 7.76364e-06
9 FrameStrobe_O[13] FrameStrobe_O[14] 0.000141234
10 *26:22 FrameStrobe_O[14] 0.000410097
11 *26:22 *27:16 2.64704e-05
*RES
1 *1081:X *27:16 43.9346 
2 *27:16 FrameStrobe_O[14] 15.4011 
*END

*D_NET *28 0.0036788
*CONN
*P FrameStrobe_O[15] O
*I *1082:X O *D sky130_fd_sc_hd__clkbuf_4
*CAP
1 FrameStrobe_O[15] 0.000540777
2 *1082:X 0.000493422
3 *28:14 0.0010342
4 FrameStrobe_O[15] FrameStrobe_O[16] 0.000344377
5 FrameStrobe_O[15] *1080:A 0.000151965
6 FrameStrobe_O[15] *29:10 2.05664e-05
7 FrameStrobe_O[15] *275:14 0.000178517
8 *28:14 *1080:A 2.24608e-05
9 *28:14 *30:10 0.00010018
10 *28:14 *273:22 6.10269e-06
11 *28:14 *275:14 3.58084e-06
12 FrameStrobe_O[14] FrameStrobe_O[15] 0.000367446
13 FrameStrobe_O[14] *28:14 2.40392e-06
14 *24:12 FrameStrobe_O[15] 4.80826e-05
15 *24:12 *28:14 6.63366e-05
16 *26:22 FrameStrobe_O[15] 0.000183782
17 *26:22 *28:14 3.16784e-05
18 *27:16 *28:14 8.29264e-05
*RES
1 *1082:X *28:14 44.6286 
2 *28:14 FrameStrobe_O[15] 49.6371 
*END

*D_NET *29 0.00218179
*CONN
*P FrameStrobe_O[16] O
*I *1083:X O *D sky130_fd_sc_hd__clkbuf_4
*CAP
1 FrameStrobe_O[16] 0.000370667
2 *1083:X 0.000417861
3 *29:10 0.000788528
4 FrameStrobe_O[16] FrameStrobe_O[17] 8.40176e-05
5 *29:10 *1083:A 0.000142477
6 *29:10 *31:10 1.32939e-05
7 FrameStrobe_O[15] FrameStrobe_O[16] 0.000344377
8 FrameStrobe_O[15] *29:10 2.05664e-05
*RES
1 *1083:X *29:10 44.4836 
2 *29:10 FrameStrobe_O[16] 12.2214 
*END

*D_NET *30 0.00269459
*CONN
*P FrameStrobe_O[17] O
*I *1084:X O *D sky130_fd_sc_hd__clkbuf_4
*CAP
1 FrameStrobe_O[17] 0.000652871
2 *1084:X 0.000205963
3 *30:10 0.000858834
4 FrameStrobe_O[17] FrameStrobe_O[18] 0.000262953
5 FrameStrobe_O[17] *1080:A 6.92524e-05
6 FrameStrobe_O[17] *277:8 5.50955e-05
7 FrameStrobe_O[17] *285:12 0