*SPEF "ieee 1481-1999"
*DESIGN "S_term_RAM_IO"
*DATE "11:11:11 Fri 11 11, 1111"
*VENDOR "OpenRCX"
*PROGRAM "Parallel Extraction"
*VERSION "1.0"
*DESIGN_FLOW "NAME_SCOPE LOCAL" "PIN_CAP NONE"
*DIVIDER /
*DELIMITER :
*BUS_DELIMITER []
*T_UNIT 1 NS
*C_UNIT 1 PF
*R_UNIT 1 OHM
*L_UNIT 1 HENRY

*NAME_MAP
*1 FrameStrobe[0]
*2 FrameStrobe[10]
*3 FrameStrobe[11]
*4 FrameStrobe[12]
*5 FrameStrobe[13]
*6 FrameStrobe[14]
*7 FrameStrobe[15]
*8 FrameStrobe[16]
*9 FrameStrobe[17]
*10 FrameStrobe[18]
*11 FrameStrobe[19]
*12 FrameStrobe[1]
*13 FrameStrobe[2]
*14 FrameStrobe[3]
*15 FrameStrobe[4]
*16 FrameStrobe[5]
*17 FrameStrobe[6]
*18 FrameStrobe[7]
*19 FrameStrobe[8]
*20 FrameStrobe[9]
*21 FrameStrobe_O[0]
*22 FrameStrobe_O[10]
*23 FrameStrobe_O[11]
*24 FrameStrobe_O[12]
*25 FrameStrobe_O[13]
*26 FrameStrobe_O[14]
*27 FrameStrobe_O[15]
*28 FrameStrobe_O[16]
*29 FrameStrobe_O[17]
*30 FrameStrobe_O[18]
*31 FrameStrobe_O[19]
*32 FrameStrobe_O[1]
*33 FrameStrobe_O[2]
*34 FrameStrobe_O[3]
*35 FrameStrobe_O[4]
*36 FrameStrobe_O[5]
*37 FrameStrobe_O[6]
*38 FrameStrobe_O[7]
*39 FrameStrobe_O[8]
*40 FrameStrobe_O[9]
*41 N1BEG[0]
*42 N1BEG[1]
*43 N1BEG[2]
*44 N1BEG[3]
*45 N2BEG[0]
*46 N2BEG[1]
*47 N2BEG[2]
*48 N2BEG[3]
*49 N2BEG[4]
*50 N2BEG[5]
*51 N2BEG[6]
*52 N2BEG[7]
*53 N2BEGb[0]
*54 N2BEGb[1]
*55 N2BEGb[2]
*56 N2BEGb[3]
*57 N2BEGb[4]
*58 N2BEGb[5]
*59 N2BEGb[6]
*60 N2BEGb[7]
*61 N4BEG[0]
*62 N4BEG[10]
*63 N4BEG[11]
*64 N4BEG[12]
*65 N4BEG[13]
*66 N4BEG[14]
*67 N4BEG[15]
*68 N4BEG[1]
*69 N4BEG[2]
*70 N4BEG[3]
*71 N4BEG[4]
*72 N4BEG[5]
*73 N4BEG[6]
*74 N4BEG[7]
*75 N4BEG[8]
*76 N4BEG[9]
*77 S1END[0]
*78 S1END[1]
*79 S1END[2]
*80 S1END[3]
*81 S2END[0]
*82 S2END[1]
*83 S2END[2]
*84 S2END[3]
*85 S2END[4]
*86 S2END[5]
*87 S2END[6]
*88 S2END[7]
*89 S2MID[0]
*90 S2MID[1]
*91 S2MID[2]
*92 S2MID[3]
*93 S2MID[4]
*94 S2MID[5]
*95 S2MID[6]
*96 S2MID[7]
*97 S4END[0]
*98 S4END[10]
*99 S4END[11]
*100 S4END[12]
*101 S4END[13]
*102 S4END[14]
*103 S4END[15]
*104 S4END[1]
*105 S4END[2]
*106 S4END[3]
*107 S4END[4]
*108 S4END[5]
*109 S4END[6]
*110 S4END[7]
*111 S4END[8]
*112 S4END[9]
*113 UserCLK
*114 UserCLKo
*117 FrameStrobe_O_i\[0\]
*118 FrameStrobe_O_i\[10\]
*119 FrameStrobe_O_i\[11\]
*120 FrameStrobe_O_i\[12\]
*121 FrameStrobe_O_i\[13\]
*122 FrameStrobe_O_i\[14\]
*123 FrameStrobe_O_i\[15\]
*124 FrameStrobe_O_i\[16\]
*125 FrameStrobe_O_i\[17\]
*126 FrameStrobe_O_i\[18\]
*127 FrameStrobe_O_i\[19\]
*128 FrameStrobe_O_i\[1\]
*129 FrameStrobe_O_i\[2\]
*130 FrameStrobe_O_i\[3\]
*131 FrameStrobe_O_i\[4\]
*132 FrameStrobe_O_i\[5\]
*133 FrameStrobe_O_i\[6\]
*134 FrameStrobe_O_i\[7\]
*135 FrameStrobe_O_i\[8\]
*136 FrameStrobe_O_i\[9\]
*137 net1
*138 net10
*139 net100
*140 net101
*141 net102
*142 net103
*143 net104
*144 net105
*145 net106
*146 net107
*147 net108
*148 net109
*149 net11
*150 net110
*151 net111
*152 net112
*153 net113
*154 net114
*155 net12
*156 net13
*157 net14
*158 net15
*159 net16
*160 net17
*161 net18
*162 net19
*163 net2
*164 net20
*165 net21
*166 net22
*167 net23
*168 net24
*169 net25
*170 net26
*171 net27
*172 net28
*173 net29
*174 net3
*175 net30
*176 net31
*177 net32
*178 net33
*179 net34
*180 net35
*181 net36
*182 net37
*183 net38
*184 net39
*185 net4
*186 net40
*187 net41
*188 net42
*189 net43
*190 net44
*191 net45
*192 net46
*193 net47
*194 net48
*195 net49
*196 net5
*197 net50
*198 net51
*199 net52
*200 net53
*201 net54
*202 net55
*203 net56
*204 net57
*205 net58
*206 net59
*207 net6
*208 net60
*209 net61
*210 net62
*211 net63
*212 net64
*213 net65
*214 net66
*215 net67
*216 net68
*217 net69
*218 net7
*219 net70
*220 net71
*221 net72
*222 net73
*223 net74
*224 net75
*225 net76
*226 net77
*227 net78
*228 net79
*229 net8
*230 net80
*231 net81
*232 net82
*233 net83
*234 net84
*235 net85
*236 net86
*237 net87
*238 net88
*239 net89
*240 net9
*241 net90
*242 net91
*243 net92
*244 net93
*245 net94
*246 net95
*247 net96
*248 net97
*249 net98
*250 net99
*251 ANTENNA_1
*252 FILLER_0_0_101
*253 FILLER_0_0_109
*254 FILLER_0_0_113
*255 FILLER_0_0_125
*256 FILLER_0_0_141
*257 FILLER_0_0_148
*258 FILLER_0_0_15
*259 FILLER_0_0_152
*260 FILLER_0_0_161
*261 FILLER_0_0_167
*262 FILLER_0_0_175
*263 FILLER_0_0_184
*264 FILLER_0_0_188
*265 FILLER_0_0_200
*266 FILLER_0_0_206
*267 FILLER_0_0_210
*268 FILLER_0_0_218
*269 FILLER_0_0_223
*270 FILLER_0_0_23
*271 FILLER_0_0_231
*272 FILLER_0_0_239
*273 FILLER_0_0_253
*274 FILLER_0_0_29
*275 FILLER_0_0_37
*276 FILLER_0_0_41
*277 FILLER_0_0_49
*278 FILLER_0_0_54
*279 FILLER_0_0_57
*280 FILLER_0_0_6
*281 FILLER_0_0_65
*282 FILLER_0_0_72
*283 FILLER_0_0_78
*284 FILLER_0_0_82
*285 FILLER_0_0_88
*286 FILLER_0_10_109
*287 FILLER_0_10_121
*288 FILLER_0_10_133
*289 FILLER_0_10_139
*290 FILLER_0_10_141
*291 FILLER_0_10_153
*292 FILLER_0_10_165
*293 FILLER_0_10_17
*294 FILLER_0_10_177
*295 FILLER_0_10_189
*296 FILLER_0_10_195
*297 FILLER_0_10_197
*298 FILLER_0_10_209
*299 FILLER_0_10_221
*300 FILLER_0_10_233
*301 FILLER_0_10_243
*302 FILLER_0_10_25
*303 FILLER_0_10_250
*304 FILLER_0_10_253
*305 FILLER_0_10_29
*306 FILLER_0_10_3
*307 FILLER_0_10_41
*308 FILLER_0_10_53
*309 FILLER_0_10_65
*310 FILLER_0_10_77
*311 FILLER_0_10_83
*312 FILLER_0_10_85
*313 FILLER_0_10_97
*314 FILLER_0_11_102
*315 FILLER_0_11_110
*316 FILLER_0_11_113
*317 FILLER_0_11_125
*318 FILLER_0_11_137
*319 FILLER_0_11_149
*320 FILLER_0_11_161
*321 FILLER_0_11_167
*322 FILLER_0_11_169
*323 FILLER_0_11_181
*324 FILLER_0_11_193
*325 FILLER_0_11_205
*326 FILLER_0_11_217
*327 FILLER_0_11_223
*328 FILLER_0_11_225
*329 FILLER_0_11_250
*330 FILLER_0_11_254
*331 FILLER_0_11_28
*332 FILLER_0_11_3
*333 FILLER_0_11_40
*334 FILLER_0_11_46
*335 FILLER_0_11_63
*336 FILLER_0_11_67
*337 FILLER_0_11_7
*338 FILLER_0_11_78
*339 FILLER_0_11_84
*340 FILLER_0_11_96
*341 FILLER_0_12_120
*342 FILLER_0_12_126
*343 FILLER_0_12_135
*344 FILLER_0_12_139
*345 FILLER_0_12_141
*346 FILLER_0_12_149
*347 FILLER_0_12_156
*348 FILLER_0_12_184
*349 FILLER_0_12_195
*350 FILLER_0_12_197
*351 FILLER_0_12_207
*352 FILLER_0_12_243
*353 FILLER_0_12_253
*354 FILLER_0_12_29
*355 FILLER_0_12_3
*356 FILLER_0_12_37
*357 FILLER_0_12_46
*358 FILLER_0_12_74
*359 FILLER_0_12_82
*360 FILLER_0_12_85
*361 FILLER_0_13_108
*362 FILLER_0_13_141
*363 FILLER_0_13_166
*364 FILLER_0_13_206
*365 FILLER_0_13_223
*366 FILLER_0_13_247
*367 FILLER_0_13_251
*368 FILLER_0_13_253
*369 FILLER_0_13_26
*370 FILLER_0_13_29
*371 FILLER_0_13_3
*372 FILLER_0_13_36
*373 FILLER_0_13_54
*374 FILLER_0_13_57
*375 FILLER_0_13_64
*376 FILLER_0_13_7
*377 FILLER_0_13_85
*378 FILLER_0_13_94
*379 FILLER_0_1_100
*380 FILLER_0_1_104
*381 FILLER_0_1_116
*382 FILLER_0_1_124
*383 FILLER_0_1_131
*384 FILLER_0_1_135
*385 FILLER_0_1_142
*386 FILLER_0_1_15
*387 FILLER_0_1_153
*388 FILLER_0_1_158
*389 FILLER_0_1_162
*390 FILLER_0_1_166
*391 FILLER_0_1_169
*392 FILLER_0_1_181
*393 FILLER_0_1_189
*394 FILLER_0_1_193
*395 FILLER_0_1_205
*396 FILLER_0_1_212
*397 FILLER_0_1_225
*398 FILLER_0_1_234
*399 FILLER_0_1_240
*400 FILLER_0_1_253
*401 FILLER_0_1_27
*402 FILLER_0_1_3
*403 FILLER_0_1_39
*404 FILLER_0_1_51
*405 FILLER_0_1_55
*406 FILLER_0_1_57
*407 FILLER_0_1_69
*408 FILLER_0_1_75
*409 FILLER_0_1_83
*410 FILLER_0_1_88
*411 FILLER_0_1_96
*412 FILLER_0_2_109
*413 FILLER_0_2_121
*414 FILLER_0_2_133
*415 FILLER_0_2_139
*416 FILLER_0_2_141
*417 FILLER_0_2_15
*418 FILLER_0_2_153
*419 FILLER_0_2_165
*420 FILLER_0_2_177
*421 FILLER_0_2_189
*422 FILLER_0_2_195
*423 FILLER_0_2_197
*424 FILLER_0_2_209
*425 FILLER_0_2_221
*426 FILLER_0_2_233
*427 FILLER_0_2_245
*428 FILLER_0_2_251
*429 FILLER_0_2_253
*430 FILLER_0_2_27
*431 FILLER_0_2_29
*432 FILLER_0_2_3
*433 FILLER_0_2_41
*434 FILLER_0_2_53
*435 FILLER_0_2_65
*436 FILLER_0_2_77
*437 FILLER_0_2_83
*438 FILLER_0_2_85
*439 FILLER_0_2_97
*440 FILLER_0_3_105
*441 FILLER_0_3_111
*442 FILLER_0_3_113
*443 FILLER_0_3_125
*444 FILLER_0_3_137
*445 FILLER_0_3_149
*446 FILLER_0_3_15
*447 FILLER_0_3_161
*448 FILLER_0_3_167
*449 FILLER_0_3_169
*450 FILLER_0_3_181
*451 FILLER_0_3_193
*452 FILLER_0_3_205
*453 FILLER_0_3_217
*454 FILLER_0_3_223
*455 FILLER_0_3_225
*456 FILLER_0_3_237
*457 FILLER_0_3_249
*458 FILLER_0_3_27
*459 FILLER_0_3_3
*460 FILLER_0_3_39
*461 FILLER_0_3_51
*462 FILLER_0_3_55
*463 FILLER_0_3_57
*464 FILLER_0_3_69
*465 FILLER_0_3_81
*466 FILLER_0_3_93
*467 FILLER_0_4_109
*468 FILLER_0_4_121
*469 FILLER_0_4_133
*470 FILLER_0_4_139
*471 FILLER_0_4_141
*472 FILLER_0_4_15
*473 FILLER_0_4_153
*474 FILLER_0_4_165
*475 FILLER_0_4_177
*476 FILLER_0_4_189
*477 FILLER_0_4_195
*478 FILLER_0_4_197
*479 FILLER_0_4_209
*480 FILLER_0_4_221
*481 FILLER_0_4_233
*482 FILLER_0_4_245
*483 FILLER_0_4_251
*484 FILLER_0_4_253
*485 FILLER_0_4_27
*486 FILLER_0_4_29
*487 FILLER_0_4_3
*488 FILLER_0_4_41
*489 FILLER_0_4_53
*490 FILLER_0_4_65
*491 FILLER_0_4_77
*492 FILLER_0_4_83
*493 FILLER_0_4_85
*494 FILLER_0_4_97
*495 FILLER_0_5_105
*496 FILLER_0_5_111
*497 FILLER_0_5_113
*498 FILLER_0_5_125
*499 FILLER_0_5_137
*500 FILLER_0_5_149
*501 FILLER_0_5_15
*502 FILLER_0_5_161
*503 FILLER_0_5_167
*504 FILLER_0_5_169
*505 FILLER_0_5_181
*506 FILLER_0_5_193
*507 FILLER_0_5_205
*508 FILLER_0_5_217
*509 FILLER_0_5_223
*510 FILLER_0_5_225
*511 FILLER_0_5_237
*512 FILLER_0_5_249
*513 FILLER_0_5_27
*514 FILLER_0_5_3
*515 FILLER_0_5_39
*516 FILLER_0_5_51
*517 FILLER_0_5_55
*518 FILLER_0_5_57
*519 FILLER_0_5_69
*520 FILLER_0_5_81
*521 FILLER_0_5_93
*522 FILLER_0_6_109
*523 FILLER_0_6_121
*524 FILLER_0_6_133
*525 FILLER_0_6_139
*526 FILLER_0_6_141
*527 FILLER_0_6_15
*528 FILLER_0_6_153
*529 FILLER_0_6_165
*530 FILLER_0_6_177
*531 FILLER_0_6_189
*532 FILLER_0_6_195
*533 FILLER_0_6_197
*534 FILLER_0_6_209
*535 FILLER_0_6_221
*536 FILLER_0_6_233
*537 FILLER_0_6_245
*538 FILLER_0_6_251
*539 FILLER_0_6_253
*540 FILLER_0_6_27
*541 FILLER_0_6_29
*542 FILLER_0_6_3
*543 FILLER_0_6_41
*544 FILLER_0_6_53
*545 FILLER_0_6_65
*546 FILLER_0_6_77
*547 FILLER_0_6_83
*548 FILLER_0_6_85
*549 FILLER_0_6_97
*550 FILLER_0_7_105
*551 FILLER_0_7_111
*552 FILLER_0_7_113
*553 FILLER_0_7_125
*554 FILLER_0_7_137
*555 FILLER_0_7_149
*556 FILLER_0_7_15
*557 FILLER_0_7_161
*558 FILLER_0_7_167
*559 FILLER_0_7_169
*560 FILLER_0_7_181
*561 FILLER_0_7_193
*562 FILLER_0_7_205
*563 FILLER_0_7_217
*564 FILLER_0_7_223
*565 FILLER_0_7_225
*566 FILLER_0_7_237
*567 FILLER_0_7_249
*568 FILLER_0_7_27
*569 FILLER_0_7_3
*570 FILLER_0_7_39
*571 FILLER_0_7_51
*572 FILLER_0_7_55
*573 FILLER_0_7_57
*574 FILLER_0_7_69
*575 FILLER_0_7_81
*576 FILLER_0_7_93
*577 FILLER_0_8_109
*578 FILLER_0_8_121
*579 FILLER_0_8_133
*580 FILLER_0_8_139
*581 FILLER_0_8_141
*582 FILLER_0_8_15
*583 FILLER_0_8_153
*584 FILLER_0_8_165
*585 FILLER_0_8_169
*586 FILLER_0_8_173
*587 FILLER_0_8_185
*588 FILLER_0_8_193
*589 FILLER_0_8_197
*590 FILLER_0_8_209
*591 FILLER_0_8_221
*592 FILLER_0_8_233
*593 FILLER_0_8_245
*594 FILLER_0_8_251
*595 FILLER_0_8_253
*596 FILLER_0_8_27
*597 FILLER_0_8_29
*598 FILLER_0_8_3
*599 FILLER_0_8_41
*600 FILLER_0_8_53
*601 FILLER_0_8_65
*602 FILLER_0_8_77
*603 FILLER_0_8_83
*604 FILLER_0_8_85
*605 FILLER_0_8_97
*606 FILLER_0_9_105
*607 FILLER_0_9_111
*608 FILLER_0_9_113
*609 FILLER_0_9_125
*610 FILLER_0_9_137
*611 FILLER_0_9_149
*612 FILLER_0_9_161
*613 FILLER_0_9_167
*614 FILLER_0_9_169
*615 FILLER_0_9_175
*616 FILLER_0_9_179
*617 FILLER_0_9_191
*618 FILLER_0_9_203
*619 FILLER_0_9_21
*620 FILLER_0_9_215
*621 FILLER_0_9_223
*622 FILLER_0_9_225
*623 FILLER_0_9_237
*624 FILLER_0_9_241
*625 FILLER_0_9_254
*626 FILLER_0_9_33
*627 FILLER_0_9_45
*628 FILLER_0_9_53
*629 FILLER_0_9_57
*630 FILLER_0_9_69
*631 FILLER_0_9_81
*632 FILLER_0_9_9
*633 FILLER_0_9_93
*634 Inst_S_term_RAM_IO_switch_matrix/_00_
*635 Inst_S_term_RAM_IO_switch_matrix/_01_
*636 Inst_S_term_RAM_IO_switch_matrix/_02_
*637 Inst_S_term_RAM_IO_switch_matrix/_03_
*638 Inst_S_term_RAM_IO_switch_matrix/_04_
*639 Inst_S_term_RAM_IO_switch_matrix/_05_
*640 Inst_S_term_RAM_IO_switch_matrix/_06_
*641 Inst_S_term_RAM_IO_switch_matrix/_07_
*642 Inst_S_term_RAM_IO_switch_matrix/_08_
*643 Inst_S_term_RAM_IO_switch_matrix/_09_
*644 Inst_S_term_RAM_IO_switch_matrix/_10_
*645 Inst_S_term_RAM_IO_switch_matrix/_11_
*646 Inst_S_term_RAM_IO_switch_matrix/_12_
*647 Inst_S_term_RAM_IO_switch_matrix/_13_
*648 Inst_S_term_RAM_IO_switch_matrix/_14_
*649 Inst_S_term_RAM_IO_switch_matrix/_15_
*650 Inst_S_term_RAM_IO_switch_matrix/_16_
*651 Inst_S_term_RAM_IO_switch_matrix/_17_
*652 Inst_S_term_RAM_IO_switch_matrix/_18_
*653 Inst_S_term_RAM_IO_switch_matrix/_19_
*654 Inst_S_term_RAM_IO_switch_matrix/_20_
*655 Inst_S_term_RAM_IO_switch_matrix/_21_
*656 Inst_S_term_RAM_IO_switch_matrix/_22_
*657 Inst_S_term_RAM_IO_switch_matrix/_23_
*658 Inst_S_term_RAM_IO_switch_matrix/_24_
*659 Inst_S_term_RAM_IO_switch_matrix/_25_
*660 Inst_S_term_RAM_IO_switch_matrix/_26_
*661 Inst_S_term_RAM_IO_switch_matrix/_27_
*662 Inst_S_term_RAM_IO_switch_matrix/_28_
*663 Inst_S_term_RAM_IO_switch_matrix/_29_
*664 Inst_S_term_RAM_IO_switch_matrix/_30_
*665 Inst_S_term_RAM_IO_switch_matrix/_31_
*666 Inst_S_term_RAM_IO_switch_matrix/_32_
*667 Inst_S_term_RAM_IO_switch_matrix/_33_
*668 Inst_S_term_RAM_IO_switch_matrix/_34_
*669 Inst_S_term_RAM_IO_switch_matrix/_35_
*670 PHY_0
*671 PHY_1
*672 PHY_10
*673 PHY_11
*674 PHY_12
*675 PHY_13
*676 PHY_14
*677 PHY_15
*678 PHY_16
*679 PHY_17
*680 PHY_18
*681 PHY_19
*682 PHY_2
*683 PHY_20
*684 PHY_21
*685 PHY_22
*686 PHY_23
*687 PHY_24
*688 PHY_25
*689 PHY_26
*690 PHY_27
*691 PHY_3
*692 PHY_4
*693 PHY_5
*694 PHY_6
*695 PHY_7
*696 PHY_8
*697 PHY_9
*698 TAP_28
*699 TAP_29
*700 TAP_30
*701 TAP_31
*702 TAP_32
*703 TAP_33
*704 TAP_34
*705 TAP_35
*706 TAP_36
*707 TAP_37
*708 TAP_38
*709 TAP_39
*710 TAP_40
*711 TAP_41
*712 TAP_42
*713 TAP_43
*714 TAP_44
*715 TAP_45
*716 TAP_46
*717 TAP_47
*718 TAP_48
*719 TAP_49
*720 TAP_50
*721 TAP_51
*722 TAP_52
*723 TAP_53
*724 TAP_54
*725 TAP_55
*726 TAP_56
*727 TAP_57
*728 TAP_58
*729 TAP_59
*730 TAP_60
*731 TAP_61
*732 TAP_62
*733 TAP_63
*734 TAP_64
*735 TAP_65
*736 TAP_66
*737 TAP_67
*738 TAP_68
*739 TAP_69
*740 TAP_70
*741 TAP_71
*742 TAP_72
*743 TAP_73
*744 TAP_74
*745 TAP_75
*746 TAP_76
*747 TAP_77
*748 TAP_78
*749 TAP_79
*750 TAP_80
*751 TAP_81
*752 TAP_82
*753 TAP_83
*754 TAP_84
*755 TAP_85
*756 TAP_86
*757 TAP_87
*758 TAP_88
*759 TAP_89
*760 TAP_90
*761 TAP_91
*762 TAP_92
*763 TAP_93
*764 TAP_94
*765 TAP_95
*766 TAP_96
*767 TAP_97
*768 TAP_98
*769 TAP_99
*770 input1
*771 input10
*772 input11
*773 input12
*774 input13
*775 input14
*776 input15
*777 input16
*778 input17
*779 input18
*780 input19
*781 input2
*782 input20
*783 input21
*784 input22
*785 input23
*786 input24
*787 input25
*788 input26
*789 input27
*790 input28
*791 input29
*792 input3
*793 input30
*794 input31
*795 input32
*796 input33
*797 input34
*798 input35
*799 input36
*800 input37
*801 input38
*802 input39
*803 input4
*804 input40
*805 input41
*806 input42
*807 input43
*808 input44
*809 input45
*810 input46
*811 input47
*812 input48
*813 input49
*814 input5
*815 input50
*816 input51
*817 input52
*818 input53
*819 input54
*820 input55
*821 input56
*822 input57
*823 input6
*824 input7
*825 input8
*826 input9
*827 inst_clk_buf
*828 output100
*829 output101
*830 output102
*831 output103
*832 output104
*833 output105
*834 output106
*835 output107
*836 output108
*837 output109
*838 output110
*839 output111
*840 output112
*841 output113
*842 output114
*843 output58
*844 output59
*845 output60
*846 output61
*847 output62
*848 output63
*849 output64
*850 output65
*851 output66
*852 output67
*853 output68
*854 output69
*855 output70
*856 output71
*857 output72
*858 output73
*859 output74
*860 output75
*861 output76
*862 output77
*863 output78
*864 output79
*865 output80
*866 output81
*867 output82
*868 output83
*869 output84
*870 output85
*871 output86
*872 output87
*873 output88
*874 output89
*875 output90
*876 output91
*877 output92
*878 output93
*879 output94
*880 output95
*881 output96
*882 output97
*883 output98
*884 output99
*885 strobe_inbuf_0/_0_
*886 strobe_inbuf_1/_0_
*887 strobe_inbuf_10/_0_
*888 strobe_inbuf_11/_0_
*889 strobe_inbuf_12/_0_
*890 strobe_inbuf_13/_0_
*891 strobe_inbuf_14/_0_
*892 strobe_inbuf_15/_0_
*893 strobe_inbuf_16/_0_
*894 strobe_inbuf_17/_0_
*895 strobe_inbuf_18/_0_
*896 strobe_inbuf_19/_0_
*897 strobe_inbuf_2/_0_
*898 strobe_inbuf_3/_0_
*899 strobe_inbuf_4/_0_
*900 strobe_inbuf_5/_0_
*901 strobe_inbuf_6/_0_
*902 strobe_inbuf_7/_0_
*903 strobe_inbuf_8/_0_
*904 strobe_inbuf_9/_0_
*905 strobe_outbuf_0/_0_
*906 strobe_outbuf_1/_0_
*907 strobe_outbuf_10/_0_
*908 strobe_outbuf_11/_0_
*909 strobe_outbuf_12/_0_
*910 strobe_outbuf_13/_0_
*911 strobe_outbuf_14/_0_
*912 strobe_outbuf_15/_0_
*913 strobe_outbuf_16/_0_
*914 strobe_outbuf_17/_0_
*915 strobe_outbuf_18/_0_
*916 strobe_outbuf_19/_0_
*917 strobe_outbuf_2/_0_
*918 strobe_outbuf_3/_0_
*919 strobe_outbuf_4/_0_
*920 strobe_outbuf_5/_0_
*921 strobe_outbuf_6/_0_
*922 strobe_outbuf_7/_0_
*923 strobe_outbuf_8/_0_
*924 strobe_outbuf_9/_0_

*PORTS
FrameStrobe[0] I
FrameStrobe[10] I
FrameStrobe[11] I
FrameStrobe[12] I
FrameStrobe[13] I
FrameStrobe[14] I
FrameStrobe[15] I
FrameStrobe[16] I
FrameStrobe[17] I
FrameStrobe[18] I
FrameStrobe[19] I
FrameStrobe[1] I
FrameStrobe[2] I
FrameStrobe[3] I
FrameStrobe[4] I
FrameStrobe[5] I
FrameStrobe[6] I
FrameStrobe[7] I
FrameStrobe[8] I
FrameStrobe[9] I
FrameStrobe_O[0] O
FrameStrobe_O[10] O
FrameStrobe_O[11] O
FrameStrobe_O[12] O
FrameStrobe_O[13] O
FrameStrobe_O[14] O
FrameStrobe_O[15] O
FrameStrobe_O[16] O
FrameStrobe_O[17] O
FrameStrobe_O[18] O
FrameStrobe_O[19] O
FrameStrobe_O[1] O
FrameStrobe_O[2] O
FrameStrobe_O[3] O
FrameStrobe_O[4] O
FrameStrobe_O[5] O
FrameStrobe_O[6] O
FrameStrobe_O[7] O
FrameStrobe_O[8] O
FrameStrobe_O[9] O
N1BEG[0] O
N1BEG[1] O
N1BEG[2] O
N1BEG[3] O
N2BEG[0] O
N2BEG[1] O
N2BEG[2] O
N2BEG[3] O
N2BEG[4] O
N2BEG[5] O
N2BEG[6] O
N2BEG[7] O
N2BEGb[0] O
N2BEGb[1] O
N2BEGb[2] O
N2BEGb[3] O
N2BEGb[4] O
N2BEGb[5] O
N2BEGb[6] O
N2BEGb[7] O
N4BEG[0] O
N4BEG[10] O
N4BEG[11] O
N4BEG[12] O
N4BEG[13] O
N4BEG[14] O
N4BEG[15] O
N4BEG[1] O
N4BEG[2] O
N4BEG[3] O
N4BEG[4] O
N4BEG[5] O
N4BEG[6] O
N4BEG[7] O
N4BEG[8] O
N4BEG[9] O
S1END[0] I
S1END[1] I
S1END[2] I
S1END[3] I
S2END[0] I
S2END[1] I
S2END[2] I
S2END[3] I
S2END[4] I
S2END[5] I
S2END[6] I
S2END[7] I
S2MID[0] I
S2MID[1] I
S2MID[2] I
S2MID[3] I
S2MID[4] I
S2MID[5] I
S2MID[6] I
S2MID[7] I
S4END[0] I
S4END[10] I
S4END[11] I
S4END[12] I
S4END[13] I
S4END[14] I
S4END[15] I
S4END[1] I
S4END[2] I
S4END[3] I
S4END[4] I
S4END[5] I
S4END[6] I
S4END[7] I
S4END[8] I
S4END[9] I
UserCLK I
UserCLKo O

*D_NET *1 0.000660644
*CONN
*P FrameStrobe[0] I
*I *770:A I *D sky130_fd_sc_hd__buf_1
*CAP
1 FrameStrobe[0] 0.000297942
2 *770:A 0.000297942
3 *770:A *137:16 6.47594e-05
4 *770:A *204:12 0
*RES
1 FrameStrobe[0] *770:A 8.82 
*END

*D_NET *2 0.00072187
*CONN
*P FrameStrobe[10] I
*I *781:A I *D sky130_fd_sc_hd__clkbuf_1
*CAP
1 FrameStrobe[10] 0.000360935
2 *781:A 0.000360935
3 *781:A *885:A 0
4 *781:A *886:A 0
*RES
1 FrameStrobe[10] *781:A 9.51 
*END

*D_NET *3 0.000715733
*CONN
*P FrameStrobe[11] I
*I *792:A I *D sky130_fd_sc_hd__clkbuf_1
*CAP
1 FrameStrobe[11] 0.000355647
2 *792:A 0.000355647
3 *792:A *886:A 0
4 *792:A *906:A 4.43871e-06
*RES
1 FrameStrobe[11] *792:A 9.51 
*END

*D_NET *4 0.000900236
*CONN
*P FrameStrobe[12] I
*I *803:A I *D sky130_fd_sc_hd__clkbuf_1
*CAP
1 FrameStrobe[12] 0.000426036
2 *803:A 0.000426036
3 *803:A *814:A 0
4 *803:A *827:A 0
5 *803:A *889:A 9.50342e-06
6 *803:A *154:16 3.86607e-05
*RES
1 FrameStrobe[12] *803:A 10.995 
*END

*D_NET *5 0.000702023
*CONN
*P FrameStrobe[13] I
*I *814:A I *D sky130_fd_sc_hd__clkbuf_1
*CAP
1 FrameStrobe[13] 0.000351011
2 *814:A 0.000351011
3 *803:A *814:A 0
*RES
1 FrameStrobe[13] *814:A 9.51 
*END

*D_NET *6 0.000825665
*CONN
*P FrameStrobe[14] I
*I *823:A I *D sky130_fd_sc_hd__clkbuf_1
*CAP
1 FrameStrobe[14] 0.000412833
2 *823:A 0.000412833
3 *823:A *154:16 0
*RES
1 FrameStrobe[14] *823:A 10.65 
*END

*D_NET *7 0.000698708
*CONN
*P FrameStrobe[15] I
*I *824:A I *D sky130_fd_sc_hd__clkbuf_1
*CAP
1 FrameStrobe[15] 0.000317916
2 *824:A 0.000317916
3 *824:A *154:16 6.28765e-05
*RES
1 FrameStrobe[15] *824:A 9.51 
*END

*D_NET *8 0.000685862
*CONN
*P FrameStrobe[16] I
*I *825:A I *D sky130_fd_sc_hd__clkbuf_1
*CAP
1 FrameStrobe[16] 0.000342931
2 *825:A 0.000342931
*RES
1 FrameStrobe[16] *825:A 9.51 
*END

*D_NET *9 0.00070035
*CONN
*P FrameStrobe[17] I
*I *826:A I *D sky130_fd_sc_hd__clkbuf_1
*CAP
1 FrameStrobe[17] 0.000350175
2 *826:A 0.000350175
3 *826:A *771:A 0
4 *826:A *772:A 0
*RES
1 FrameStrobe[17] *826:A 9.51 
*END

*D_NET *10 0.000875042
*CONN
*P FrameStrobe[18] I
*I *771:A I *D sky130_fd_sc_hd__clkbuf_1
*CAP
1 FrameStrobe[18] 0.000437521
2 *771:A 0.000437521
3 *771:A *772:A 0
4 *826:A *771:A 0
*RES
1 FrameStrobe[18] *771:A 12.09 
*END

*D_NET *11 0.00136517
*CONN
*P FrameStrobe[19] I
*I *772:A I *D sky130_fd_sc_hd__clkbuf_1
*CAP
1 FrameStrobe[19] 0.000617442
2 *772:A 0.000617442
3 *772:A *896:A 8.65905e-05
4 *772:A *914:A 1.61831e-05
5 *772:A *916:A 2.75145e-05
6 *771:A *772:A 0
7 *826:A *772:A 0
*RES
1 FrameStrobe[19] *772:A 18.205 
*END

*D_NET *12 0.000630543
*CONN
*P FrameStrobe[1] I
*I *773:A I *D sky130_fd_sc_hd__buf_1
*CAP
1 FrameStrobe[1] 0.000315272
2 *773:A 0.000315272
*RES
1 FrameStrobe[1] *773:A 8.82 
*END

*D_NET *13 0.00071614
*CONN
*P FrameStrobe[2] I
*I *774:A I *D sky130_fd_sc_hd__clkbuf_1
*CAP
1 FrameStrobe[2] 0.00033874
2 *774:A 0.00033874
3 *774:A *156:26 3.86607e-05
*RES
1 FrameStrobe[2] *774:A 9.51 
*END

*D_NET *14 0.000730819
*CONN
*P FrameStrobe[3] I
*I *775:A I *D sky130_fd_sc_hd__clkbuf_1
*CAP
1 FrameStrobe[3] 0.0003353
2 *775:A 0.0003353
3 *775:A *898:A 6.02202e-05
*RES
1 FrameStrobe[3] *775:A 9.51 
*END

*D_NET *15 0.0010558
*CONN
*P FrameStrobe[4] I
*I *776:A I *D sky130_fd_sc_hd__clkbuf_1
*CAP
1 FrameStrobe[4] 0.000457559
2 *776:A 0.000457559
3 *776:A *155:18 7.06865e-05
4 *776:A *156:26 6.99988e-05
*RES
1 FrameStrobe[4] *776:A 11.34 
*END

*D_NET *16 0.00133707
*CONN
*P FrameStrobe[5] I
*I *777:A I *D sky130_fd_sc_hd__clkbuf_1
*CAP
1 FrameStrobe[5] 0.000447887
2 *777:A 0.000447887
3 *777:A *898:A 0.000163175
4 *777:A *137:16 0.000278117
*RES
1 FrameStrobe[5] *777:A 16.48 
*END

*D_NET *17 0.00129693
*CONN
*P FrameStrobe[6] I
*I *778:A I *D sky130_fd_sc_hd__clkbuf_1
*CAP
1 FrameStrobe[6] 0.000411652
2 *778:A 0.000411652
3 *778:A *779:A 0
4 *778:A *898:A 0.000149696
5 *778:A *137:16 0.000278117
6 *778:A *204:14 4.58166e-05
*RES
1 FrameStrobe[6] *778:A 16.48 
*END

*D_NET *18 0.000735562
*CONN
*P FrameStrobe[7] I
*I *779:A I *D sky130_fd_sc_hd__clkbuf_1
*CAP
1 FrameStrobe[7] 0.000367781
2 *779:A 0.000367781
3 *778:A *779:A 0
*RES
1 FrameStrobe[7] *779:A 9.51 
*END

*D_NET *19 0.000733993
*CONN
*P FrameStrobe[8] I
*I *780:A I *D sky130_fd_sc_hd__clkbuf_1
*CAP
1 FrameStrobe[8] 0.000366997
2 *780:A 0.000366997
3 *780:A *782:A 0
4 *780:A *156:26 0
*RES
1 FrameStrobe[8] *780:A 9.51 
*END

*D_NET *20 0.0013483
*CONN
*P FrameStrobe[9] I
*I *782:A I *D sky130_fd_sc_hd__clkbuf_1
*CAP
1 FrameStrobe[9] 0.000510794
2 *782:A 0.000510794
3 *782:A *885:A 0
4 *782:A *904:A 9.52646e-05
5 *782:A *905:A 0.000187904
6 *782:A *923:A 0
7 *782:A *924:A 4.35432e-05
8 *782:A *156:26 0
9 *780:A *782:A 0
*RES
1 FrameStrobe[9] *782:A 14.43 
*END

*D_NET *21 0.000849874
*CONN
*P FrameStrobe_O[0] O
*I *843:X O *D sky130_fd_sc_hd__clkbuf_4
*CAP
1 FrameStrobe_O[0] 0.000234061
2 *843:X 0.000234061
3 FrameStrobe_O[0] FrameStrobe_O[1] 0.000182183
4 FrameStrobe_O[0] UserCLKo 0.000182183
5 FrameStrobe_O[0] *843:A 1.7386e-05
*RES
1 *843:X FrameStrobe_O[0] 9.96 
*END

*D_NET *22 0.000932947
*CONN
*P FrameStrobe_O[10] O
*I *844:X O *D sky130_fd_sc_hd__clkbuf_4
*CAP
1 FrameStrobe_O[10] 0.000235415
2 *844:X 0.000235415
3 FrameStrobe_O[10] FrameStrobe_O[11] 0.000182183
4 FrameStrobe_O[10] FrameStrobe_O[5] 9.24049e-05
5 FrameStrobe_O[10] FrameStrobe_O[9] 0.000113957
6 FrameStrobe_O[10] *844:A 7.35729e-05
*RES
1 *844:X FrameStrobe_O[10] 9.855 
*END

*D_NET *23 0.00179005
*CONN
*P FrameStrobe_O[11] O
*I *845:X O *D sky130_fd_sc_hd__clkbuf_4
*CAP
1 FrameStrobe_O[11] 0.000469562
2 *845:X 0.000469562
3 FrameStrobe_O[11] FrameStrobe_O[12] 0.000253801
4 FrameStrobe_O[11] FrameStrobe_O[19] 0.000290936
5 FrameStrobe_O[11] FrameStrobe_O[9] 0.000124007
6 FrameStrobe_O[11] *844:A 0
7 FrameStrobe_O[10] FrameStrobe_O[11] 0.000182183
*RES
1 *845:X FrameStrobe_O[11] 15.36 
*END

*D_NET *24 0.00110087
*CONN
*P FrameStrobe_O[12] O
*I *846:X O *D sky130_fd_sc_hd__clkbuf_4
*CAP
1 FrameStrobe_O[12] 0.000269356
2 *846:X 0.000269356
3 FrameStrobe_O[12] FrameStrobe_O[13] 0.000257614
4 FrameStrobe_O[12] FrameStrobe_O[19] 5.07419e-05
5 FrameStrobe_O[11] FrameStrobe_O[12] 0.000253801
*RES
1 *846:X FrameStrobe_O[12] 11.55 
*END

*D_NET *25 0.00209439
*CONN
*P FrameStrobe_O[13] O
*I *847:X O *D sky130_fd_sc_hd__clkbuf_4
*CAP
1 FrameStrobe_O[13] 0.000487514
2 *847:X 0.000487514
3 FrameStrobe_O[13] FrameStrobe_O[14] 0.000327148
4 FrameStrobe_O[13] FrameStrobe_O[15] 0
5 FrameStrobe_O[13] *846:A 0.000450576
6 FrameStrobe_O[13] *849:A 8.40269e-05
7 FrameStrobe_O[12] FrameStrobe_O[13] 0.000257614
*RES
1 *847:X FrameStrobe_O[13] 17.325 
*END

*D_NET *26 0.00143317
*CONN
*P FrameStrobe_O[14] O
*I *848:X O *D sky130_fd_sc_hd__clkbuf_4
*CAP
1 FrameStrobe_O[14] 0.000325509
2 *848:X 0.000325509
3 FrameStrobe_O[14] FrameStrobe_O[15] 0.000330101
4 FrameStrobe_O[14] FrameStrobe_O[18] 0.0001249
5 FrameStrobe_O[13] FrameStrobe_O[14] 0.000327148
*RES
1 *848:X FrameStrobe_O[14] 13.59 
*END

*D_NET *27 0.00212765
*CONN
*P FrameStrobe_O[15] O
*I *849:X O *D sky130_fd_sc_hd__clkbuf_4
*CAP
1 FrameStrobe_O[15] 0.00048896
2 *849:X 0.00048896
3 FrameStrobe_O[15] FrameStrobe_O[16] 0.000819625
4 FrameStrobe_O[13] FrameStrobe_O[15] 0
5 FrameStrobe_O[14] FrameStrobe_O[15] 0.000330101
*RES
1 *849:X FrameStrobe_O[15] 17.325 
*END

*D_NET *28 0.00222269
*CONN
*P FrameStrobe_O[16] O
*I *850:X O *D sky130_fd_sc_hd__clkbuf_4
*CAP
1 FrameStrobe_O[16] 0.000626781
2 *850:X 0.000626781
3 FrameStrobe_O[16] FrameStrobe_O[17] 0.000149501
4 FrameStrobe_O[15] FrameStrobe_O[16] 0.000819625
*RES
1 *850:X FrameStrobe_O[16] 18.42 
*END

*D_NET *29 0.00222958
*CONN
*P FrameStrobe_O[17] O
*I *851:X O *D sky130_fd_sc_hd__clkbuf_4
*CAP
1 FrameStrobe_O[17] 0.00066925
2 *851:X 0.00066925
3 FrameStrobe_O[17] FrameStrobe_O[18] 0.00074158
4 FrameStrobe_O[16] FrameStrobe_O[17] 0.000149501
*RES
1 *851:X FrameStrobe_O[17] 19.53 
*END

*D_NET *30 0.0027263
*CONN
*P FrameStrobe_O[18] O
*I *852:X O *D sky130_fd_sc_hd__clkbuf_4
*CAP
1 FrameStrobe_O[18] 0.000734839
2 *852:X 0.000734839
3 FrameStrobe_O[18] FrameStrobe_O[19] 0.000299916
4 FrameStrobe_O[18] *852:A 9.02259e-05
5 FrameStrobe_O[14] FrameStrobe_O[18] 0.0001249
6 FrameStrobe_O[17] FrameStrobe_O[18] 0.00074158
*RES
1 *852:X FrameStrobe_O[18] 21.885 
*END

*D_NET *31 0.00324062
*CONN
*P FrameStrobe_O[19] O
*I *853:X O *D sky130_fd_sc_hd__clkbuf_4
*CAP
1 FrameStrobe_O[19] 0.00102447
2 *853:X 0.00102447
3 FrameStrobe_O[19] *853:A 0.000389455
4 FrameStrobe_O[19] *862:A 0.000160641
5 FrameStrobe_O[11] FrameStrobe_O[19] 0.000290936
6 FrameStrobe_O[12] FrameStrobe_O[19] 5.07419e-05
7 FrameStrobe_O[18] FrameStrobe_O[19] 0.000299916
*RES
1 *853:X FrameStrobe_O[19] 25.77 
*END

*D_NET *32 0.00107357
*CONN
*P FrameStrobe_O[1] O
*I *854:X O *D sky130_fd_sc_hd__clkbuf_4
*CAP
1 FrameStrobe_O[1] 0.000319818
2 *854:X 0.000319818
3 FrameStrobe_O[1] FrameStrobe_O[2] 0.000176205
4 FrameStrobe_O[1] *854:A 6.97118e-05
5 FrameStrobe_O[1] *855:A 5.83121e-06
6 FrameStrobe_O[0] FrameStrobe_O[1] 0.000182183
*RES
1 *854:X FrameStrobe_O[1] 10.995 
*END

*D_NET *33 0.00150511
*CONN
*P FrameStrobe_O[2] O
*I *855:X O *D sky130_fd_sc_hd__buf_2
*CAP
1 FrameStrobe_O[2] 0.00043473
2 *855:X 0.00043473
3 FrameStrobe_O[2] FrameStrobe_O[3] 0.000229385
4 FrameStrobe_O[2] FrameStrobe_O[4] 2.14495e-05
5 FrameStrobe_O[2] *843:A 0
6 FrameStrobe_O[2] *854:A 5.05437e-05
7 FrameStrobe_O[2] *855:A 0.000140971
8 FrameStrobe_O[2] *217:10 1.70935e-05
9 FrameStrobe_O[1] FrameStrobe_O[2] 0.000176205
*RES
1 *855:X FrameStrobe_O[2] 13.95 
*END

*D_NET *34 0.00104112
*CONN
*P FrameStrobe_O[3] O
*I *856:X O *D sky130_fd_sc_hd__buf_2
*CAP
1 FrameStrobe_O[3] 0.000245988
2 *856:X 0.000245988
3 FrameStrobe_O[3] FrameStrobe_O[4] 0.000182183
4 FrameStrobe_O[3] FrameStrobe_O[6] 0
5 FrameStrobe_O[3] *855:A 0.000137578
6 FrameStrobe_O[3] *217:10 0
7 FrameStrobe_O[2] FrameStrobe_O[3] 0.000229385
*RES
1 *856:X FrameStrobe_O[3] 10.86 
*END

*D_NET *35 0.00129847
*CONN
*P FrameStrobe_O[4] O
*I *857:X O *D sky130_fd_sc_hd__clkbuf_4
*CAP
1 FrameStrobe_O[4] 0.000450716
2 *857:X 0.000450716
3 FrameStrobe_O[4] FrameStrobe_O[5] 0.000119003
4 FrameStrobe_O[4] FrameStrobe_O[6] 0
5 FrameStrobe_O[4] *855:A 7.43984e-05
6 FrameStrobe_O[2] FrameStrobe_O[4] 2.14495e-05
7 FrameStrobe_O[3] FrameStrobe_O[4] 0.000182183
*RES
1 *857:X FrameStrobe_O[4] 12.03 
*END

*D_NET *36 0.00131827
*CONN
*P FrameStrobe_O[5] O
*I *858:X O *D sky130_fd_sc_hd__clkbuf_4
*CAP
1 FrameStrobe_O[5] 0.000412628
2 *858:X 0.000412628
3 FrameStrobe_O[5] FrameStrobe_O[6] 0.000116927
4 FrameStrobe_O[5] FrameStrobe_O[9] 0.000164679
5 FrameStrobe_O[10] FrameStrobe_O[5] 9.24049e-05
6 FrameStrobe_O[4] FrameStrobe_O[5] 0.000119003
*RES
1 *858:X FrameStrobe_O[5] 17.065 
*END

*D_NET *37 0.00241694
*CONN
*P FrameStrobe_O[6] O
*I *859:X O *D sky130_fd_sc_hd__clkbuf_4
*CAP
1 FrameStrobe_O[6] 0.00078412
2 *859:X 0.00078412
3 FrameStrobe_O[6] FrameStrobe_O[7] 0.000161189
4 FrameStrobe_O[6] *845:A 4.63425e-05
5 FrameStrobe_O[6] *850:A 0.000156559
6 FrameStrobe_O[6] *855:A 0
7 FrameStrobe_O[6] *857:A 0.000367681
8 FrameStrobe_O[3] FrameStrobe_O[6] 0
9 FrameStrobe_O[4] FrameStrobe_O[6] 0
10 FrameStrobe_O[5] FrameStrobe_O[6] 0.000116927
*RES
1 *859:X FrameStrobe_O[6] 18.945 
*END

*D_NET *38 0.00126533
*CONN
*P FrameStrobe_O[7] O
*I *860:X O *D sky130_fd_sc_hd__clkbuf_4
*CAP
1 FrameStrobe_O[7] 0.000284074
2 *860:X 0.000284074
3 FrameStrobe_O[7] FrameStrobe_O[8] 0.000394397
4 FrameStrobe_O[7] *858:A 0.000141599
5 FrameStrobe_O[6] FrameStrobe_O[7] 0.000161189
*RES
1 *860:X FrameStrobe_O[7] 11.655 
*END

*D_NET *39 0.00173276
*CONN
*P FrameStrobe_O[8] O
*I *861:X O *D sky130_fd_sc_hd__clkbuf_4
*CAP
1 FrameStrobe_O[8] 0.000396077