*SPEF "ieee 1481-1999"
*DESIGN "S_term_DSP"
*DATE "11:11:11 Fri 11 11, 1111"
*VENDOR "OpenRCX"
*PROGRAM "Parallel Extraction"
*VERSION "1.0"
*DESIGN_FLOW "NAME_SCOPE LOCAL" "PIN_CAP NONE"
*DIVIDER /
*DELIMITER :
*BUS_DELIMITER []
*T_UNIT 1 NS
*C_UNIT 1 PF
*R_UNIT 1 OHM
*L_UNIT 1 HENRY

*NAME_MAP
*1 FrameStrobe[0]
*2 FrameStrobe[10]
*3 FrameStrobe[11]
*4 FrameStrobe[12]
*5 FrameStrobe[13]
*6 FrameStrobe[14]
*7 FrameStrobe[15]
*8 FrameStrobe[16]
*9 FrameStrobe[17]
*10 FrameStrobe[18]
*11 FrameStrobe[19]
*12 FrameStrobe[1]
*13 FrameStrobe[2]
*14 FrameStrobe[3]
*15 FrameStrobe[4]
*16 FrameStrobe[5]
*17 FrameStrobe[6]
*18 FrameStrobe[7]
*19 FrameStrobe[8]
*20 FrameStrobe[9]
*21 FrameStrobe_O[0]
*22 FrameStrobe_O[10]
*23 FrameStrobe_O[11]
*24 FrameStrobe_O[12]
*25 FrameStrobe_O[13]
*26 FrameStrobe_O[14]
*27 FrameStrobe_O[15]
*28 FrameStrobe_O[16]
*29 FrameStrobe_O[17]
*30 FrameStrobe_O[18]
*31 FrameStrobe_O[19]
*32 FrameStrobe_O[1]
*33 FrameStrobe_O[2]
*34 FrameStrobe_O[3]
*35 FrameStrobe_O[4]
*36 FrameStrobe_O[5]
*37 FrameStrobe_O[6]
*38 FrameStrobe_O[7]
*39 FrameStrobe_O[8]
*40 FrameStrobe_O[9]
*41 N1BEG[0]
*42 N1BEG[1]
*43 N1BEG[2]
*44 N1BEG[3]
*45 N2BEG[0]
*46 N2BEG[1]
*47 N2BEG[2]
*48 N2BEG[3]
*49 N2BEG[4]
*50 N2BEG[5]
*51 N2BEG[6]
*52 N2BEG[7]
*53 N2BEGb[0]
*54 N2BEGb[1]
*55 N2BEGb[2]
*56 N2BEGb[3]
*57 N2BEGb[4]
*58 N2BEGb[5]
*59 N2BEGb[6]
*60 N2BEGb[7]
*61 N4BEG[0]
*62 N4BEG[10]
*63 N4BEG[11]
*64 N4BEG[12]
*65 N4BEG[13]
*66 N4BEG[14]
*67 N4BEG[15]
*68 N4BEG[1]
*69 N4BEG[2]
*70 N4BEG[3]
*71 N4BEG[4]
*72 N4BEG[5]
*73 N4BEG[6]
*74 N4BEG[7]
*75 N4BEG[8]
*76 N4BEG[9]
*77 NN4BEG[0]
*78 NN4BEG[10]
*79 NN4BEG[11]
*80 NN4BEG[12]
*81 NN4BEG[13]
*82 NN4BEG[14]
*83 NN4BEG[15]
*84 NN4BEG[1]
*85 NN4BEG[2]
*86 NN4BEG[3]
*87 NN4BEG[4]
*88 NN4BEG[5]
*89 NN4BEG[6]
*90 NN4BEG[7]
*91 NN4BEG[8]
*92 NN4BEG[9]
*93 S1END[0]
*94 S1END[1]
*95 S1END[2]
*96 S1END[3]
*97 S2END[0]
*98 S2END[1]
*99 S2END[2]
*100 S2END[3]
*101 S2END[4]
*102 S2END[5]
*103 S2END[6]
*104 S2END[7]
*105 S2MID[0]
*106 S2MID[1]
*107 S2MID[2]
*108 S2MID[3]
*109 S2MID[4]
*110 S2MID[5]
*111 S2MID[6]
*112 S2MID[7]
*113 S4END[0]
*114 S4END[10]
*115 S4END[11]
*116 S4END[12]
*117 S4END[13]
*118 S4END[14]
*119 S4END[15]
*120 S4END[1]
*121 S4END[2]
*122 S4END[3]
*123 S4END[4]
*124 S4END[5]
*125 S4END[6]
*126 S4END[7]
*127 S4END[8]
*128 S4END[9]
*129 SS4END[0]
*130 SS4END[10]
*131 SS4END[11]
*132 SS4END[12]
*133 SS4END[13]
*134 SS4END[14]
*135 SS4END[15]
*136 SS4END[1]
*137 SS4END[2]
*138 SS4END[3]
*139 SS4END[4]
*140 SS4END[5]
*141 SS4END[6]
*142 SS4END[7]
*143 SS4END[8]
*144 SS4END[9]
*145 UserCLK
*146 UserCLKo
*149 FrameStrobe_O_i\[0\]
*150 FrameStrobe_O_i\[10\]
*151 FrameStrobe_O_i\[11\]
*152 FrameStrobe_O_i\[12\]
*153 FrameStrobe_O_i\[13\]
*154 FrameStrobe_O_i\[14\]
*155 FrameStrobe_O_i\[15\]
*156 FrameStrobe_O_i\[16\]
*157 FrameStrobe_O_i\[17\]
*158 FrameStrobe_O_i\[18\]
*159 FrameStrobe_O_i\[19\]
*160 FrameStrobe_O_i\[1\]
*161 FrameStrobe_O_i\[2\]
*162 FrameStrobe_O_i\[3\]
*163 FrameStrobe_O_i\[4\]
*164 FrameStrobe_O_i\[5\]
*165 FrameStrobe_O_i\[6\]
*166 FrameStrobe_O_i\[7\]
*167 FrameStrobe_O_i\[8\]
*168 FrameStrobe_O_i\[9\]
*169 net1
*170 net10
*171 net100
*172 net101
*173 net102
*174 net103
*175 net104
*176 net105
*177 net106
*178 net107
*179 net108
*180 net109
*181 net11
*182 net110
*183 net111
*184 net112
*185 net113
*186 net114
*187 net115
*188 net116
*189 net117
*190 net118
*191 net119
*192 net12
*193 net120
*194 net121
*195 net122
*196 net123
*197 net124
*198 net125
*199 net126
*200 net127
*201 net128
*202 net129
*203 net13
*204 net130
*205 net131
*206 net132
*207 net133
*208 net134
*209 net135
*210 net136
*211 net137
*212 net138
*213 net139
*214 net14
*215 net140
*216 net141
*217 net142
*218 net143
*219 net144
*220 net145
*221 net146
*222 net15
*223 net16
*224 net17
*225 net18
*226 net19
*227 net2
*228 net20
*229 net21
*230 net22
*231 net23
*232 net24
*233 net25
*234 net26
*235 net27
*236 net28
*237 net29
*238 net3
*239 net30
*240 net31
*241 net32
*242 net33
*243 net34
*244 net35
*245 net36
*246 net37
*247 net38
*248 net39
*249 net4
*250 net40
*251 net41
*252 net42
*253 net43
*254 net44
*255 net45
*256 net46
*257 net47
*258 net48
*259 net49
*260 net5
*261 net50
*262 net51
*263 net52
*264 net53
*265 net54
*266 net55
*267 net56
*268 net57
*269 net58
*270 net59
*271 net6
*272 net60
*273 net61
*274 net62
*275 net63
*276 net64
*277 net65
*278 net66
*279 net67
*280 net68
*281 net69
*282 net7
*283 net70
*284 net71
*285 net72
*286 net73
*287 net74
*288 net75
*289 net76
*290 net77
*291 net78
*292 net79
*293 net8
*294 net80
*295 net81
*296 net82
*297 net83
*298 net84
*299 net85
*300 net86
*301 net87
*302 net88
*303 net89
*304 net9
*305 net90
*306 net91
*307 net92
*308 net93
*309 net94
*310 net95
*311 net96
*312 net97
*313 net98
*314 net99
*315 ANTENNA_1
*316 ANTENNA_2
*317 ANTENNA_3
*318 ANTENNA_4
*319 ANTENNA_5
*320 ANTENNA_6
*321 FILLER_0_0_110
*322 FILLER_0_0_113
*323 FILLER_0_0_117
*324 FILLER_0_0_121
*325 FILLER_0_0_133
*326 FILLER_0_0_139
*327 FILLER_0_0_144
*328 FILLER_0_0_156
*329 FILLER_0_0_167
*330 FILLER_0_0_169
*331 FILLER_0_0_18
*332 FILLER_0_0_181
*333 FILLER_0_0_190
*334 FILLER_0_0_197
*335 FILLER_0_0_209
*336 FILLER_0_0_213
*337 FILLER_0_0_221
*338 FILLER_0_0_225
*339 FILLER_0_0_236
*340 FILLER_0_0_248
*341 FILLER_0_0_253
*342 FILLER_0_0_259
*343 FILLER_0_0_26
*344 FILLER_0_0_271
*345 FILLER_0_0_279
*346 FILLER_0_0_284
*347 FILLER_0_0_296
*348 FILLER_0_0_305
*349 FILLER_0_0_309
*350 FILLER_0_0_32
*351 FILLER_0_0_321
*352 FILLER_0_0_328
*353 FILLER_0_0_337
*354 FILLER_0_0_345
*355 FILLER_0_0_351
*356 FILLER_0_0_363
*357 FILLER_0_0_365
*358 FILLER_0_0_374
*359 FILLER_0_0_386
*360 FILLER_0_0_393
*361 FILLER_0_0_397
*362 FILLER_0_0_409
*363 FILLER_0_0_421
*364 FILLER_0_0_433
*365 FILLER_0_0_439
*366 FILLER_0_0_44
*367 FILLER_0_0_443
*368 FILLER_0_0_447
*369 FILLER_0_0_449
*370 FILLER_0_0_457
*371 FILLER_0_0_48
*372 FILLER_0_0_52
*373 FILLER_0_0_57
*374 FILLER_0_0_6
*375 FILLER_0_0_69
*376 FILLER_0_0_75
*377 FILLER_0_0_83
*378 FILLER_0_0_85
*379 FILLER_0_0_93
*380 FILLER_0_0_98
*381 FILLER_0_10_109
*382 FILLER_0_10_121
*383 FILLER_0_10_133
*384 FILLER_0_10_139
*385 FILLER_0_10_141
*386 FILLER_0_10_15
*387 FILLER_0_10_153
*388 FILLER_0_10_165
*389 FILLER_0_10_177
*390 FILLER_0_10_189
*391 FILLER_0_10_193
*392 FILLER_0_10_197
*393 FILLER_0_10_209
*394 FILLER_0_10_221
*395 FILLER_0_10_233
*396 FILLER_0_10_245
*397 FILLER_0_10_251
*398 FILLER_0_10_253
*399 FILLER_0_10_265
*400 FILLER_0_10_27
*401 FILLER_0_10_277
*402 FILLER_0_10_289
*403 FILLER_0_10_29
*404 FILLER_0_10_3
*405 FILLER_0_10_301
*406 FILLER_0_10_307
*407 FILLER_0_10_309
*408 FILLER_0_10_321
*409 FILLER_0_10_333
*410 FILLER_0_10_345
*411 FILLER_0_10_357
*412 FILLER_0_10_363
*413 FILLER_0_10_365
*414 FILLER_0_10_377
*415 FILLER_0_10_389
*416 FILLER_0_10_401
*417 FILLER_0_10_41
*418 FILLER_0_10_413
*419 FILLER_0_10_419
*420 FILLER_0_10_421
*421 FILLER_0_10_433
*422 FILLER_0_10_445
*423 FILLER_0_10_457
*424 FILLER_0_10_461
*425 FILLER_0_10_53
*426 FILLER_0_10_61
*427 FILLER_0_10_65
*428 FILLER_0_10_77
*429 FILLER_0_10_83
*430 FILLER_0_10_85
*431 FILLER_0_10_97
*432 FILLER_0_11_100
*433 FILLER_0_11_113
*434 FILLER_0_11_120
*435 FILLER_0_11_130
*436 FILLER_0_11_142
*437 FILLER_0_11_15
*438 FILLER_0_11_154
*439 FILLER_0_11_166
*440 FILLER_0_11_169
*441 FILLER_0_11_177
*442 FILLER_0_11_184
*443 FILLER_0_11_194
*444 FILLER_0_11_208
*445 FILLER_0_11_212
*446 FILLER_0_11_223
*447 FILLER_0_11_231
*448 FILLER_0_11_238
*449 FILLER_0_11_244
*450 FILLER_0_11_256
*451 FILLER_0_11_268
*452 FILLER_0_11_27
*453 FILLER_0_11_274
*454 FILLER_0_11_278
*455 FILLER_0_11_281
*456 FILLER_0_11_293
*457 FILLER_0_11_3
*458 FILLER_0_11_305
*459 FILLER_0_11_317
*460 FILLER_0_11_329
*461 FILLER_0_11_335
*462 FILLER_0_11_337
*463 FILLER_0_11_349
*464 FILLER_0_11_361
*465 FILLER_0_11_373
*466 FILLER_0_11_385
*467 FILLER_0_11_39
*468 FILLER_0_11_391
*469 FILLER_0_11_393
*470 FILLER_0_11_405
*471 FILLER_0_11_417
*472 FILLER_0_11_429
*473 FILLER_0_11_441
*474 FILLER_0_11_447
*475 FILLER_0_11_449
*476 FILLER_0_11_461
*477 FILLER_0_11_51
*478 FILLER_0_11_57
*479 FILLER_0_11_61
*480 FILLER_0_11_72
*481 FILLER_0_11_76
*482 FILLER_0_11_88
*483 FILLER_0_12_102
*484 FILLER_0_12_126
*485 FILLER_0_12_141
*486 FILLER_0_12_15
*487 FILLER_0_12_154
*488 FILLER_0_12_162
*489 FILLER_0_12_186
*490 FILLER_0_12_197
*491 FILLER_0_12_250
*492 FILLER_0_12_27
*493 FILLER_0_12_29
*494 FILLER_0_12_295
*495 FILLER_0_12_3
*496 FILLER_0_12_307
*497 FILLER_0_12_309
*498 FILLER_0_12_321
*499 FILLER_0_12_333
*500 FILLER_0_12_345
*501 FILLER_0_12_359
*502 FILLER_0_12_363
*503 FILLER_0_12_365
*504 FILLER_0_12_377
*505 FILLER_0_12_392
*506 FILLER_0_12_41
*507 FILLER_0_12_419
*508 FILLER_0_12_433
*509 FILLER_0_12_445
*510 FILLER_0_12_457
*511 FILLER_0_12_461
*512 FILLER_0_12_47
*513 FILLER_0_12_66
*514 FILLER_0_12_85
*515 FILLER_0_12_93
*516 FILLER_0_13_113
*517 FILLER_0_13_124
*518 FILLER_0_13_128
*519 FILLER_0_13_141
*520 FILLER_0_13_15
*521 FILLER_0_13_156
*522 FILLER_0_13_169
*523 FILLER_0_13_197
*524 FILLER_0_13_210
*525 FILLER_0_13_225
*526 FILLER_0_13_251
*527 FILLER_0_13_27
*528 FILLER_0_13_29
*529 FILLER_0_13_3
*530 FILLER_0_13_35
*531 FILLER_0_13_358
*532 FILLER_0_13_363
*533 FILLER_0_13_375
*534 FILLER_0_13_38
*535 FILLER_0_13_389
*536 FILLER_0_13_417
*537 FILLER_0_13_439
*538 FILLER_0_13_447
*539 FILLER_0_13_449
*540 FILLER_0_13_461
*541 FILLER_0_13_57
*542 FILLER_0_13_63
*543 FILLER_0_13_71
*544 FILLER_0_13_85
*545 FILLER_0_1_105
*546 FILLER_0_1_111
*547 FILLER_0_1_113
*548 FILLER_0_1_125
*549 FILLER_0_1_137
*550 FILLER_0_1_149
*551 FILLER_0_1_15
*552 FILLER_0_1_161
*553 FILLER_0_1_167
*554 FILLER_0_1_169
*555 FILLER_0_1_181
*556 FILLER_0_1_193
*557 FILLER_0_1_205
*558 FILLER_0_1_217
*559 FILLER_0_1_223
*560 FILLER_0_1_231
*561 FILLER_0_1_243
*562 FILLER_0_1_255
*563 FILLER_0_1_267
*564 FILLER_0_1_27
*565 FILLER_0_1_279
*566 FILLER_0_1_281
*567 FILLER_0_1_293
*568 FILLER_0_1_3
*569 FILLER_0_1_305
*570 FILLER_0_1_317
*571 FILLER_0_1_329
*572 FILLER_0_1_335
*573 FILLER_0_1_337
*574 FILLER_0_1_349
*575 FILLER_0_1_361
*576 FILLER_0_1_373
*577 FILLER_0_1_385
*578 FILLER_0_1_39
*579 FILLER_0_1_391
*580 FILLER_0_1_393
*581 FILLER_0_1_405
*582 FILLER_0_1_413
*583 FILLER_0_1_417
*584 FILLER_0_1_426
*585 FILLER_0_1_438
*586 FILLER_0_1_446
*587 FILLER_0_1_449
*588 FILLER_0_1_461
*589 FILLER_0_1_51
*590 FILLER_0_1_55
*591 FILLER_0_1_57
*592 FILLER_0_1_69
*593 FILLER_0_1_81
*594 FILLER_0_1_93
*595 FILLER_0_2_109
*596 FILLER_0_2_121
*597 FILLER_0_2_133
*598 FILLER_0_2_139
*599 FILLER_0_2_141
*600 FILLER_0_2_15
*601 FILLER_0_2_153
*602 FILLER_0_2_165
*603 FILLER_0_2_177
*604 FILLER_0_2_189
*605 FILLER_0_2_195
*606 FILLER_0_2_197
*607 FILLER_0_2_209
*608 FILLER_0_2_217
*609 FILLER_0_2_225
*610 FILLER_0_2_233
*611 FILLER_0_2_239
*612 FILLER_0_2_251
*613 FILLER_0_2_253
*614 FILLER_0_2_265
*615 FILLER_0_2_27
*616 FILLER_0_2_277
*617 FILLER_0_2_289
*618 FILLER_0_2_29
*619 FILLER_0_2_3
*620 FILLER_0_2_301
*621 FILLER_0_2_307
*622 FILLER_0_2_309
*623 FILLER_0_2_321
*624 FILLER_0_2_333
*625 FILLER_0_2_345
*626 FILLER_0_2_357
*627 FILLER_0_2_363
*628 FILLER_0_2_365
*629 FILLER_0_2_377
*630 FILLER_0_2_389
*631 FILLER_0_2_401
*632 FILLER_0_2_409
*633 FILLER_0_2_41
*634 FILLER_0_2_414
*635 FILLER_0_2_424
*636 FILLER_0_2_436
*637 FILLER_0_2_448
*638 FILLER_0_2_460
*639 FILLER_0_2_53
*640 FILLER_0_2_65
*641 FILLER_0_2_77
*642 FILLER_0_2_83
*643 FILLER_0_2_85
*644 FILLER_0_2_97
*645 FILLER_0_3_105
*646 FILLER_0_3_111
*647 FILLER_0_3_113
*648 FILLER_0_3_125
*649 FILLER_0_3_137
*650 FILLER_0_3_149
*651 FILLER_0_3_15
*652 FILLER_0_3_161
*653 FILLER_0_3_167
*654 FILLER_0_3_169
*655 FILLER_0_3_181
*656 FILLER_0_3_189
*657 FILLER_0_3_195
*658 FILLER_0_3_207
*659 FILLER_0_3_219
*660 FILLER_0_3_223
*661 FILLER_0_3_225
*662 FILLER_0_3_230
*663 FILLER_0_3_234
*664 FILLER_0_3_246
*665 FILLER_0_3_258
*666 FILLER_0_3_27
*667 FILLER_0_3_270
*668 FILLER_0_3_278
*669 FILLER_0_3_281
*670 FILLER_0_3_293
*671 FILLER_0_3_3
*672 FILLER_0_3_305
*673 FILLER_0_3_310
*674 FILLER_0_3_322
*675 FILLER_0_3_334
*676 FILLER_0_3_337
*677 FILLER_0_3_349
*678 FILLER_0_3_361
*679 FILLER_0_3_373
*680 FILLER_0_3_384
*681 FILLER_0_3_39
*682 FILLER_0_3_393
*683 FILLER_0_3_405
*684 FILLER_0_3_417
*685 FILLER_0_3_429
*686 FILLER_0_3_433
*687 FILLER_0_3_445
*688 FILLER_0_3_449
*689 FILLER_0_3_461
*690 FILLER_0_3_51
*691 FILLER_0_3_55
*692 FILLER_0_3_57
*693 FILLER_0_3_69
*694 FILLER_0_3_81
*695 FILLER_0_3_93
*696 FILLER_0_4_109
*697 FILLER_0_4_121
*698 FILLER_0_4_133
*699 FILLER_0_4_139
*700 FILLER_0_4_141
*701 FILLER_0_4_15
*702 FILLER_0_4_153
*703 FILLER_0_4_165
*704 FILLER_0_4_177
*705 FILLER_0_4_189
*706 FILLER_0_4_195
*707 FILLER_0_4_197
*708 FILLER_0_4_203
*709 FILLER_0_4_215
*710 FILLER_0_4_227
*711 FILLER_0_4_235
*712 FILLER_0_4_241
*713 FILLER_0_4_249
*714 FILLER_0_4_253
*715 FILLER_0_4_265
*716 FILLER_0_4_27
*717 FILLER_0_4_277
*718 FILLER_0_4_289
*719 FILLER_0_4_29
*720 FILLER_0_4_3
*721 FILLER_0_4_301
*722 FILLER_0_4_307
*723 FILLER_0_4_309
*724 FILLER_0_4_318
*725 FILLER_0_4_330
*726 FILLER_0_4_342
*727 FILLER_0_4_354
*728 FILLER_0_4_362
*729 FILLER_0_4_365
*730 FILLER_0_4_377
*731 FILLER_0_4_389
*732 FILLER_0_4_396
*733 FILLER_0_4_408
*734 FILLER_0_4_41
*735 FILLER_0_4_421
*736 FILLER_0_4_425
*737 FILLER_0_4_437
*738 FILLER_0_4_449
*739 FILLER_0_4_461
*740 FILLER_0_4_53
*741 FILLER_0_4_65
*742 FILLER_0_4_77
*743 FILLER_0_4_83
*744 FILLER_0_4_85
*745 FILLER_0_4_97
*746 FILLER_0_5_105
*747 FILLER_0_5_111
*748 FILLER_0_5_113
*749 FILLER_0_5_125
*750 FILLER_0_5_137
*751 FILLER_0_5_149
*752 FILLER_0_5_15
*753 FILLER_0_5_161
*754 FILLER_0_5_167
*755 FILLER_0_5_169
*756 FILLER_0_5_181
*757 FILLER_0_5_193
*758 FILLER_0_5_205
*759 FILLER_0_5_213
*760 FILLER_0_5_218
*761 FILLER_0_5_237
*762 FILLER_0_5_245
*763 FILLER_0_5_249
*764 FILLER_0_5_264
*765 FILLER_0_5_27
*766 FILLER_0_5_276
*767 FILLER_0_5_281
*768 FILLER_0_5_287
*769 FILLER_0_5_299
*770 FILLER_0_5_3
*771 FILLER_0_5_311
*772 FILLER_0_5_323
*773 FILLER_0_5_329
*774 FILLER_0_5_333
*775 FILLER_0_5_337
*776 FILLER_0_5_349
*777 FILLER_0_5_361
*778 FILLER_0_5_373
*779 FILLER_0_5_385
*780 FILLER_0_5_39
*781 FILLER_0_5_391
*782 FILLER_0_5_393
*783 FILLER_0_5_400
*784 FILLER_0_5_412
*785 FILLER_0_5_424
*786 FILLER_0_5_436
*787 FILLER_0_5_449
*788 FILLER_0_5_461
*789 FILLER_0_5_51
*790 FILLER_0_5_55
*791 FILLER_0_5_57
*792 FILLER_0_5_69
*793 FILLER_0_5_81
*794 FILLER_0_5_93
*795 FILLER_0_6_109
*796 FILLER_0_6_121
*797 FILLER_0_6_133
*798 FILLER_0_6_139
*799 FILLER_0_6_141
*800 FILLER_0_6_15
*801 FILLER_0_6_153
*802 FILLER_0_6_165
*803 FILLER_0_6_177
*804 FILLER_0_6_189
*805 FILLER_0_6_195
*806 FILLER_0_6_197
*807 FILLER_0_6_209
*808 FILLER_0_6_221
*809 FILLER_0_6_226
*810 FILLER_0_6_232
*811 FILLER_0_6_245
*812 FILLER_0_6_251
*813 FILLER_0_6_253
*814 FILLER_0_6_265
*815 FILLER_0_6_27
*816 FILLER_0_6_272
*817 FILLER_0_6_284
*818 FILLER_0_6_29
*819 FILLER_0_6_295
*820 FILLER_0_6_3
*821 FILLER_0_6_307
*822 FILLER_0_6_309
*823 FILLER_0_6_321
*824 FILLER_0_6_333
*825 FILLER_0_6_337
*826 FILLER_0_6_341
*827 FILLER_0_6_353
*828 FILLER_0_6_361
*829 FILLER_0_6_365
*830 FILLER_0_6_377
*831 FILLER_0_6_385
*832 FILLER_0_6_389
*833 FILLER_0_6_401
*834 FILLER_0_6_406
*835 FILLER_0_6_41
*836 FILLER_0_6_418
*837 FILLER_0_6_421
*838 FILLER_0_6_433
*839 FILLER_0_6_445
*840 FILLER_0_6_457
*841 FILLER_0_6_461
*842 FILLER_0_6_53
*843 FILLER_0_6_65
*844 FILLER_0_6_77
*845 FILLER_0_6_83
*846 FILLER_0_6_85
*847 FILLER_0_6_97
*848 FILLER_0_7_105
*849 FILLER_0_7_111
*850 FILLER_0_7_113
*851 FILLER_0_7_125
*852 FILLER_0_7_137
*853 FILLER_0_7_149
*854 FILLER_0_7_15
*855 FILLER_0_7_161
*856 FILLER_0_7_167
*857 FILLER_0_7_169
*858 FILLER_0_7_181
*859 FILLER_0_7_193
*860 FILLER_0_7_205
*861 FILLER_0_7_217
*862 FILLER_0_7_223
*863 FILLER_0_7_225
*864 FILLER_0_7_237
*865 FILLER_0_7_249
*866 FILLER_0_7_261
*867 FILLER_0_7_27
*868 FILLER_0_7_273
*869 FILLER_0_7_279
*870 FILLER_0_7_281
*871 FILLER_0_7_293
*872 FILLER_0_7_3
*873 FILLER_0_7_305
*874 FILLER_0_7_317
*875 FILLER_0_7_329
*876 FILLER_0_7_335
*877 FILLER_0_7_337
*878 FILLER_0_7_349
*879 FILLER_0_7_361
*880 FILLER_0_7_373
*881 FILLER_0_7_385
*882 FILLER_0_7_39
*883 FILLER_0_7_391
*884 FILLER_0_7_393
*885 FILLER_0_7_398
*886 FILLER_0_7_410
*887 FILLER_0_7_422
*888 FILLER_0_7_434
*889 FILLER_0_7_446
*890 FILLER_0_7_449
*891 FILLER_0_7_461
*892 FILLER_0_7_51
*893 FILLER_0_7_55
*894 FILLER_0_7_57
*895 FILLER_0_7_69
*896 FILLER_0_7_81
*897 FILLER_0_7_93
*898 FILLER_0_8_109
*899 FILLER_0_8_121
*900 FILLER_0_8_133
*901 FILLER_0_8_139
*902 FILLER_0_8_141
*903 FILLER_0_8_15
*904 FILLER_0_8_153
*905 FILLER_0_8_165
*906 FILLER_0_8_177
*907 FILLER_0_8_189
*908 FILLER_0_8_195
*909 FILLER_0_8_197
*910 FILLER_0_8_209
*911 FILLER_0_8_221
*912 FILLER_0_8_233
*913 FILLER_0_8_245
*914 FILLER_0_8_251
*915 FILLER_0_8_253
*916 FILLER_0_8_265
*917 FILLER_0_8_27
*918 FILLER_0_8_277
*919 FILLER_0_8_289
*920 FILLER_0_8_29
*921 FILLER_0_8_3
*922 FILLER_0_8_301
*923 FILLER_0_8_307
*924 FILLER_0_8_309
*925 FILLER_0_8_321
*926 FILLER_0_8_333
*927 FILLER_0_8_345
*928 FILLER_0_8_357
*929 FILLER_0_8_363
*930 FILLER_0_8_365
*931 FILLER_0_8_377
*932 FILLER_0_8_389
*933 FILLER_0_8_401
*934 FILLER_0_8_41
*935 FILLER_0_8_413
*936 FILLER_0_8_419
*937 FILLER_0_8_421
*938 FILLER_0_8_433
*939 FILLER_0_8_445
*940 FILLER_0_8_457
*941 FILLER_0_8_461
*942 FILLER_0_8_53
*943 FILLER_0_8_65
*944 FILLER_0_8_77
*945 FILLER_0_8_83
*946 FILLER_0_8_85
*947 FILLER_0_8_97
*948 FILLER_0_9_105
*949 FILLER_0_9_111
*950 FILLER_0_9_113
*951 FILLER_0_9_125
*952 FILLER_0_9_137
*953 FILLER_0_9_149
*954 FILLER_0_9_15
*955 FILLER_0_9_161
*956 FILLER_0_9_167
*957 FILLER_0_9_169
*958 FILLER_0_9_181
*959 FILLER_0_9_193
*960 FILLER_0_9_205
*961 FILLER_0_9_217
*962 FILLER_0_9_223
*963 FILLER_0_9_225
*964 FILLER_0_9_237
*965 FILLER_0_9_249
*966 FILLER_0_9_261
*967 FILLER_0_9_27
*968 FILLER_0_9_273
*969 FILLER_0_9_279
*970 FILLER_0_9_281
*971 FILLER_0_9_293
*972 FILLER_0_9_3
*973 FILLER_0_9_305
*974 FILLER_0_9_317
*975 FILLER_0_9_329
*976 FILLER_0_9_335
*977 FILLER_0_9_337
*978 FILLER_0_9_349
*979 FILLER_0_9_361
*980 FILLER_0_9_373
*981 FILLER_0_9_385
*982 FILLER_0_9_39
*983 FILLER_0_9_391
*984 FILLER_0_9_393
*985 FILLER_0_9_405
*986 FILLER_0_9_417
*987 FILLER_0_9_429
*988 FILLER_0_9_441
*989 FILLER_0_9_447
*990 FILLER_0_9_449
*991 FILLER_0_9_461
*992 FILLER_0_9_51
*993 FILLER_0_9_55
*994 FILLER_0_9_57
*995 FILLER_0_9_69
*996 FILLER_0_9_81
*997 FILLER_0_9_93
*998 Inst_S_term_DSP_switch_matrix/_00_
*999 Inst_S_term_DSP_switch_matrix/_01_
*1000 Inst_S_term_DSP_switch_matrix/_02_
*1001 Inst_S_term_DSP_switch_matrix/_03_
*1002 Inst_S_term_DSP_switch_matrix/_04_
*1003 Inst_S_term_DSP_switch_matrix/_05_
*1004 Inst_S_term_DSP_switch_matrix/_06_
*1005 Inst_S_term_DSP_switch_matrix/_07_
*1006 Inst_S_term_DSP_switch_matrix/_08_
*1007 Inst_S_term_DSP_switch_matrix/_09_
*1008 Inst_S_term_DSP_switch_matrix/_10_
*1009 Inst_S_term_DSP_switch_matrix/_11_
*1010 Inst_S_term_DSP_switch_matrix/_12_
*1011 Inst_S_term_DSP_switch_matrix/_13_
*1012 Inst_S_term_DSP_switch_matrix/_14_
*1013 Inst_S_term_DSP_switch_matrix/_15_
*1014 Inst_S_term_DSP_switch_matrix/_16_
*1015 Inst_S_term_DSP_switch_matrix/_17_
*1016 Inst_S_term_DSP_switch_matrix/_18_
*1017 Inst_S_term_DSP_switch_matrix/_19_
*1018 Inst_S_term_DSP_switch_matrix/_20_
*1019 Inst_S_term_DSP_switch_matrix/_21_
*1020 Inst_S_term_DSP_switch_matrix/_22_
*1021 Inst_S_term_DSP_switch_matrix/_23_
*1022 Inst_S_term_DSP_switch_matrix/_24_
*1023 Inst_S_term_DSP_switch_matrix/_25_
*1024 Inst_S_term_DSP_switch_matrix/_26_
*1025 Inst_S_term_DSP_switch_matrix/_27_
*1026 Inst_S_term_DSP_switch_matrix/_28_
*1027 Inst_S_term_DSP_switch_matrix/_29_
*1028 Inst_S_term_DSP_switch_matrix/_30_
*1029 Inst_S_term_DSP_switch_matrix/_31_
*1030 Inst_S_term_DSP_switch_matrix/_32_
*1031 Inst_S_term_DSP_switch_matrix/_33_
*1032 Inst_S_term_DSP_switch_matrix/_34_
*1033 Inst_S_term_DSP_switch_matrix/_35_
*1034 Inst_S_term_DSP_switch_matrix/_36_
*1035 Inst_S_term_DSP_switch_matrix/_37_
*1036 Inst_S_term_DSP_switch_matrix/_38_
*1037 Inst_S_term_DSP_switch_matrix/_39_
*1038 Inst_S_term_DSP_switch_matrix/_40_
*1039 Inst_S_term_DSP_switch_matrix/_41_
*1040 Inst_S_term_DSP_switch_matrix/_42_
*1041 Inst_S_term_DSP_switch_matrix/_43_
*1042 Inst_S_term_DSP_switch_matrix/_44_
*1043 Inst_S_term_DSP_switch_matrix/_45_
*1044 Inst_S_term_DSP_switch_matrix/_46_
*1045 Inst_S_term_DSP_switch_matrix/_47_
*1046 Inst_S_term_DSP_switch_matrix/_48_
*1047 Inst_S_term_DSP_switch_matrix/_49_
*1048 Inst_S_term_DSP_switch_matrix/_50_
*1049 Inst_S_term_DSP_switch_matrix/_51_
*1050 PHY_0
*1051 PHY_1
*1052 PHY_10
*1053 PHY_11
*1054 PHY_12
*1055 PHY_13
*1056 PHY_14
*1057 PHY_15
*1058 PHY_16
*1059 PHY_17
*1060 PHY_18
*1061 PHY_19
*1062 PHY_2
*1063 PHY_20
*1064 PHY_21
*1065 PHY_22
*1066 PHY_23
*1067 PHY_24
*1068 PHY_25
*1069 PHY_26
*1070 PHY_27
*1071 PHY_3
*1072 PHY_4
*1073 PHY_5
*1074 PHY_6
*1075 PHY_7
*1076 PHY_8
*1077 PHY_9
*1078 TAP_100
*1079 TAP_101
*1080 TAP_102
*1081 TAP_103
*1082 TAP_104
*1083 TAP_105
*1084 TAP_106
*1085 TAP_107
*1086 TAP_108
*1087 TAP_109
*1088 TAP_110
*1089 TAP_111
*1090 TAP_112
*1091 TAP_113
*1092 TAP_114
*1093 TAP_115
*1094 TAP_116
*1095 TAP_117
*1096 TAP_118
*1097 TAP_119
*1098 TAP_120
*1099 TAP_121
*1100 TAP_122
*1101 TAP_123
*1102 TAP_124
*1103 TAP_125
*1104 TAP_126
*1105 TAP_127
*1106 TAP_128
*1107 TAP_129
*1108 TAP_130
*1109 TAP_131
*1110 TAP_132
*1111 TAP_133
*1112 TAP_134
*1113 TAP_135
*1114 TAP_136
*1115 TAP_137
*1116 TAP_138
*1117 TAP_139
*1118 TAP_140
*1119 TAP_141
*1120 TAP_142
*1121 TAP_143
*1122 TAP_144
*1123 TAP_145
*1124 TAP_146
*1125 TAP_147
*1126 TAP_148
*1127 TAP_149
*1128 TAP_150
*1129 TAP_151
*1130 TAP_152
*1131 TAP_153
*1132 TAP_154
*1133 TAP_155
*1134 TAP_28
*1135 TAP_29
*1136 TAP_30
*1137 TAP_31
*1138 TAP_32
*1139 TAP_33
*1140 TAP_34
*1141 TAP_35
*1142 TAP_36
*1143 TAP_37
*1144 TAP_38
*1145 TAP_39
*1146 TAP_40
*1147 TAP_41
*1148 TAP_42
*1149 TAP_43
*1150 TAP_44
*1151 TAP_45
*1152 TAP_46
*1153 TAP_47
*1154 TAP_48
*1155 TAP_49
*1156 TAP_50
*1157 TAP_51
*1158 TAP_52
*1159 TAP_53
*1160 TAP_54
*1161 TAP_55
*1162 TAP_56
*1163 TAP_57
*1164 TAP_58
*1165 TAP_59
*1166 TAP_60
*1167 TAP_61
*1168 TAP_62
*1169 TAP_63
*1170 TAP_64
*1171 TAP_65
*1172 TAP_66
*1173 TAP_67
*1174 TAP_68
*1175 TAP_69
*1176 TAP_70
*1177 TAP_71
*1178 TAP_72
*1179 TAP_73
*1180 TAP_74
*1181 TAP_75
*1182 TAP_76
*1183 TAP_77
*1184 TAP_78
*1185 TAP_79
*1186 TAP_80
*1187 TAP_81
*1188 TAP_82
*1189 TAP_83
*1190 TAP_84
*1191 TAP_85
*1192 TAP_86
*1193 TAP_87
*1194 TAP_88
*1195 TAP_89
*1196 TAP_90
*1197 TAP_91
*1198 TAP_92
*1199 TAP_93
*1200 TAP_94
*1201 TAP_95
*1202 TAP_96
*1203 TAP_97
*1204 TAP_98
*1205 TAP_99
*1206 input1
*1207 input10
*1208 input11
*1209 input12
*1210 input13
*1211 input14
*1212 input15
*1213 input16
*1214 input17
*1215 input18
*1216 input19
*1217 input2
*1218 input20
*1219 input21
*1220 input22
*1221 input23
*1222 input24
*1223 input25
*1224 input26
*1225 input27
*1226 input28
*1227 input29
*1228 input3
*1229 input30
*1230 input31
*1231 input32
*1232 input33
*1233 input34
*1234 input35
*1235 input36
*1236 input37
*1237 input38
*1238 input39
*1239 input4
*1240 input40
*1241 input41
*1242 input42
*1243 input43
*1244 input44
*1245 input45
*1246 input46
*1247 input47
*1248 input48
*1249 input49
*1250 input5
*1251 input50
*1252 input51
*1253 input52
*1254 input53
*1255 input54
*1256 input55
*1257 input56
*1258 input57
*1259 input58
*1260 input59
*1261 input6
*1262 input60
*1263 input61
*1264 input62
*1265 input63
*1266 input64
*1267 input65
*1268 input66
*1269 input67
*1270 input68
*1271 input69
*1272 input7
*1273 input70
*1274 input71
*1275 input72
*1276 input73
*1277 input8
*1278 input9
*1279 inst_clk_buf
*1280 output100
*1281 output101
*1282 output102
*1283 output103
*1284 output104
*1285 output105
*1286 output106
*1287 output107
*1288 output108
*1289 output109
*1290 output110
*1291 output111
*1292 output112
*1293 output113
*1294 output114
*1295 output115
*1296 output116
*1297 output117
*1298 output118
*1299 output119
*1300 output120
*1301 output121
*1302 output122
*1303 output123
*1304 output124
*1305 output125
*1306 output126
*1307 output127
*1308 output128
*1309 output129
*1310 output130
*1311 output131
*1312 output132
*1313 output133
*1314 output134
*1315 output135
*1316 output136
*1317 output137
*1318 output138
*1319 output139
*1320 output140
*1321 output141
*1322 output142
*1323 output143
*1324 output144
*1325 output145
*1326 output146
*1327 output74
*1328 output75
*1329 output76
*1330 output77
*1331 output78
*1332 output79
*1333 output80
*1334 output81
*1335 output82
*1336 output83
*1337 output84
*1338 output85
*1339 output86
*1340 output87
*1341 output88
*1342 output89
*1343 output90
*1344 output91
*1345 output92
*1346 output93
*1347 output94
*1348 output95
*1349 output96
*1350 output97
*1351 output98
*1352 output99
*1353 strobe_inbuf_0/_0_
*1354 strobe_inbuf_1/_0_
*1355 strobe_inbuf_10/_0_
*1356 strobe_inbuf_11/_0_
*1357 strobe_inbuf_12/_0_
*1358 strobe_inbuf_13/_0_
*1359 strobe_inbuf_14/_0_
*1360 strobe_inbuf_15/_0_
*1361 strobe_inbuf_16/_0_
*1362 strobe_inbuf_17/_0_
*1363 strobe_inbuf_18/_0_
*1364 strobe_inbuf_19/_0_
*1365 strobe_inbuf_2/_0_
*1366 strobe_inbuf_3/_0_
*1367 strobe_inbuf_4/_0_
*1368 strobe_inbuf_5/_0_
*1369 strobe_inbuf_6/_0_
*1370 strobe_inbuf_7/_0_
*1371 strobe_inbuf_8/_0_
*1372 strobe_inbuf_9/_0_
*1373 strobe_outbuf_0/_0_
*1374 strobe_outbuf_1/_0_
*1375 strobe_outbuf_10/_0_
*1376 strobe_outbuf_11/_0_
*1377 strobe_outbuf_12/_0_
*1378 strobe_outbuf_13/_0_
*1379 strobe_outbuf_14/_0_
*1380 strobe_outbuf_15/_0_
*1381 strobe_outbuf_16/_0_
*1382 strobe_outbuf_17/_0_
*1383 strobe_outbuf_18/_0_
*1384 strobe_outbuf_19/_0_
*1385 strobe_outbuf_2/_0_
*1386 strobe_outbuf_3/_0_
*1387 strobe_outbuf_4/_0_
*1388 strobe_outbuf_5/_0_
*1389 strobe_outbuf_6/_0_
*1390 strobe_outbuf_7/_0_
*1391 strobe_outbuf_8/_0_
*1392 strobe_outbuf_9/_0_

*PORTS
FrameStrobe[0] I
FrameStrobe[10] I
FrameStrobe[11] I
FrameStrobe[12] I
FrameStrobe[13] I
FrameStrobe[14] I
FrameStrobe[15] I
FrameStrobe[16] I
FrameStrobe[17] I
FrameStrobe[18] I
FrameStrobe[19] I
FrameStrobe[1] I
FrameStrobe[2] I
FrameStrobe[3] I
FrameStrobe[4] I
FrameStrobe[5] I
FrameStrobe[6] I
FrameStrobe[7] I
FrameStrobe[8] I
FrameStrobe[9] I
FrameStrobe_O[0] O
FrameStrobe_O[10] O
FrameStrobe_O[11] O
FrameStrobe_O[12] O
FrameStrobe_O[13] O
FrameStrobe_O[14] O
FrameStrobe_O[15] O
FrameStrobe_O[16] O
FrameStrobe_O[17] O
FrameStrobe_O[18] O
FrameStrobe_O[19] O
FrameStrobe_O[1] O
FrameStrobe_O[2] O
FrameStrobe_O[3] O
FrameStrobe_O[4] O
FrameStrobe_O[5] O
FrameStrobe_O[6] O
FrameStrobe_O[7] O
FrameStrobe_O[8] O
FrameStrobe_O[9] O
N1BEG[0] O
N1BEG[1] O
N1BEG[2] O
N1BEG[3] O
N2BEG[0] O
N2BEG[1] O
N2BEG[2] O
N2BEG[3] O
N2BEG[4] O
N2BEG[5] O
N2BEG[6] O
N2BEG[7] O
N2BEGb[0] O
N2BEGb[1] O
N2BEGb[2] O
N2BEGb[3] O
N2BEGb[4] O
N2BEGb[5] O
N2BEGb[6] O
N2BEGb[7] O
N4BEG[0] O
N4BEG[10] O
N4BEG[11] O
N4BEG[12] O
N4BEG[13] O
N4BEG[14] O
N4BEG[15] O
N4BEG[1] O
N4BEG[2] O
N4BEG[3] O
N4BEG[4] O
N4BEG[5] O
N4BEG[6] O
N4BEG[7] O
N4BEG[8] O
N4BEG[9] O
NN4BEG[0] O
NN4BEG[10] O
NN4BEG[11] O
NN4BEG[12] O
NN4BEG[13] O
NN4BEG[14] O
NN4BEG[15] O
NN4BEG[1] O
NN4BEG[2] O
NN4BEG[3] O
NN4BEG[4] O
NN4BEG[5] O
NN4BEG[6] O
NN4BEG[7] O
NN4BEG[8] O
NN4BEG[9] O
S1END[0] I
S1END[1] I
S1END[2] I
S1END[3] I
S2END[0] I
S2END[1] I
S2END[2] I
S2END[3] I
S2END[4] I
S2END[5] I
S2END[6] I
S2END[7] I
S2MID[0] I
S2MID[1] I
S2MID[2] I
S2MID[3] I
S2MID[4] I
S2MID[5] I
S2MID[6] I
S2MID[7] I
S4END[0] I
S4END[10] I
S4END[11] I
S4END[12] I
S4END[13] I
S4END[14] I
S4END[15] I
S4END[1] I
S4END[2] I
S4END[3] I
S4END[4] I
S4END[5] I
S4END[6] I
S4END[7] I
S4END[8] I
S4END[9] I
SS4END[0] I
SS4END[10] I
SS4END[11] I
SS4END[12] I
SS4END[13] I
SS4END[14] I
SS4END[15] I
SS4END[1] I
SS4END[2] I
SS4END[3] I
SS4END[4] I
SS4END[5] I
SS4END[6] I
SS4END[7] I
SS4END[8] I
SS4END[9] I
UserCLK I
UserCLKo O

*D_NET *1 0.000797123
*CONN
*P FrameStrobe[0] I
*I *1206:A I *D sky130_fd_sc_hd__buf_1
*CAP
1 FrameStrobe[0] 0.000398561
2 *1206:A 0.000398561
*RES
1 FrameStrobe[0] *1206:A 46.6379 
*END

*D_NET *2 0.000803681
*CONN
*P FrameStrobe[10] I
*I *1217:A I *D sky130_fd_sc_hd__clkbuf_1
*CAP
1 FrameStrobe[10] 0.00038222
2 *1217:A 0.00038222
3 *1217:A *227:16 3.92407e-05
*RES
1 FrameStrobe[10] *1217:A 46.1614 
*END

*D_NET *3 0.000934036
*CONN
*P FrameStrobe[11] I
*I *1228:A I *D sky130_fd_sc_hd__clkbuf_1
*CAP
1 FrameStrobe[11] 0.000438497
2 *1228:A 0.000438497
3 *1228:A *238:10 5.70419e-05
*RES
1 FrameStrobe[11] *1228:A 47.1143 
*END

*D_NET *4 0.000782496
*CONN
*P FrameStrobe[12] I
*I *1239:A I *D sky130_fd_sc_hd__clkbuf_1
*CAP
1 FrameStrobe[12] 0.00038821
2 *1239:A 0.00038821
3 *1239:A *249:10 6.07611e-06
*RES
1 FrameStrobe[12] *1239:A 46.1614 
*END

*D_NET *5 0.000775604
*CONN
*P FrameStrobe[13] I
*I *1250:A I *D sky130_fd_sc_hd__clkbuf_1
*CAP
1 FrameStrobe[13] 0.000387802
2 *1250:A 0.000387802
3 *1250:A *260:14 0
*RES
1 FrameStrobe[13] *1250:A 46.1614 
*END

*D_NET *6 0.000888439
*CONN
*P FrameStrobe[14] I
*I *1261:A I *D sky130_fd_sc_hd__clkbuf_1
*CAP
1 FrameStrobe[14] 0.00044422
2 *1261:A 0.00044422
*RES
1 FrameStrobe[14] *1261:A 47.4043 
*END

*D_NET *7 0.000782496
*CONN
*P FrameStrobe[15] I
*I *1272:A I *D sky130_fd_sc_hd__clkbuf_1
*CAP
1 FrameStrobe[15] 0.00038821
2 *1272:A 0.00038821
3 *1272:A *282:10 6.07611e-06
*RES
1 FrameStrobe[15] *1272:A 46.1614 
*END

*D_NET *8 0.000766776
*CONN
*P FrameStrobe[16] I
*I *1277:A I *D sky130_fd_sc_hd__clkbuf_1
*CAP
1 FrameStrobe[16] 0.000365594
2 *1277:A 0.000365594
3 *1277:A *293:12 3.55887e-05
*RES
1 FrameStrobe[16] *1277:A 46.1614 
*END

*D_NET *9 0.000822368
*CONN
*P FrameStrobe[17] I
*I *1278:A I *D sky130_fd_sc_hd__clkbuf_1
*CAP
1 FrameStrobe[17] 0.000401443
2 *1278:A 0.000401443
3 *1278:A *304:10 1.94812e-05
*RES
1 FrameStrobe[17] *1278:A 46.1614 
*END

*D_NET *10 0.000755384
*CONN
*P FrameStrobe[18] I
*I *1207:A I *D sky130_fd_sc_hd__clkbuf_1
*CAP
1 FrameStrobe[18] 0.000377692
2 *1207:A 0.000377692
3 *1207:A *1363:A 0
*RES
1 FrameStrobe[18] *1207:A 46.1614 
*END

*D_NET *11 0.000671906
*CONN
*P FrameStrobe[19] I