*SPEF "ieee 1481-1999"
*DESIGN "S_term_single2"
*DATE "11:11:11 Fri 11 11, 1111"
*VENDOR "OpenRCX"
*PROGRAM "Parallel Extraction"
*VERSION "1.0"
*DESIGN_FLOW "NAME_SCOPE LOCAL" "PIN_CAP NONE"
*DIVIDER /
*DELIMITER :
*BUS_DELIMITER []
*T_UNIT 1 NS
*C_UNIT 1 PF
*R_UNIT 1 OHM
*L_UNIT 1 HENRY

*NAME_MAP
*1 FrameStrobe[0]
*2 FrameStrobe[10]
*3 FrameStrobe[11]
*4 FrameStrobe[12]
*5 FrameStrobe[13]
*6 FrameStrobe[14]
*7 FrameStrobe[15]
*8 FrameStrobe[16]
*9 FrameStrobe[17]
*10 FrameStrobe[18]
*11 FrameStrobe[19]
*12 FrameStrobe[1]
*13 FrameStrobe[2]
*14 FrameStrobe[3]
*15 FrameStrobe[4]
*16 FrameStrobe[5]
*17 FrameStrobe[6]
*18 FrameStrobe[7]
*19 FrameStrobe[8]
*20 FrameStrobe[9]
*21 FrameStrobe_O[0]
*22 FrameStrobe_O[10]
*23 FrameStrobe_O[11]
*24 FrameStrobe_O[12]
*25 FrameStrobe_O[13]
*26 FrameStrobe_O[14]
*27 FrameStrobe_O[15]
*28 FrameStrobe_O[16]
*29 FrameStrobe_O[17]
*30 FrameStrobe_O[18]
*31 FrameStrobe_O[19]
*32 FrameStrobe_O[1]
*33 FrameStrobe_O[2]
*34 FrameStrobe_O[3]
*35 FrameStrobe_O[4]
*36 FrameStrobe_O[5]
*37 FrameStrobe_O[6]
*38 FrameStrobe_O[7]
*39 FrameStrobe_O[8]
*40 FrameStrobe_O[9]
*41 N1BEG[0]
*42 N1BEG[1]
*43 N1BEG[2]
*44 N1BEG[3]
*45 N2BEG[0]
*46 N2BEG[1]
*47 N2BEG[2]
*48 N2BEG[3]
*49 N2BEG[4]
*50 N2BEG[5]
*51 N2BEG[6]
*52 N2BEG[7]
*53 N2BEGb[0]
*54 N2BEGb[1]
*55 N2BEGb[2]
*56 N2BEGb[3]
*57 N2BEGb[4]
*58 N2BEGb[5]
*59 N2BEGb[6]
*60 N2BEGb[7]
*61 N4BEG[0]
*62 N4BEG[10]
*63 N4BEG[11]
*64 N4BEG[12]
*65 N4BEG[13]
*66 N4BEG[14]
*67 N4BEG[15]
*68 N4BEG[1]
*69 N4BEG[2]
*70 N4BEG[3]
*71 N4BEG[4]
*72 N4BEG[5]
*73 N4BEG[6]
*74 N4BEG[7]
*75 N4BEG[8]
*76 N4BEG[9]
*77 NN4BEG[0]
*78 NN4BEG[10]
*79 NN4BEG[11]
*80 NN4BEG[12]
*81 NN4BEG[13]
*82 NN4BEG[14]
*83 NN4BEG[15]
*84 NN4BEG[1]
*85 NN4BEG[2]
*86 NN4BEG[3]
*87 NN4BEG[4]
*88 NN4BEG[5]
*89 NN4BEG[6]
*90 NN4BEG[7]
*91 NN4BEG[8]
*92 NN4BEG[9]
*93 S1END[0]
*94 S1END[1]
*95 S1END[2]
*96 S1END[3]
*97 S2END[0]
*98 S2END[1]
*99 S2END[2]
*100 S2END[3]
*101 S2END[4]
*102 S2END[5]
*103 S2END[6]
*104 S2END[7]
*105 S2MID[0]
*106 S2MID[1]
*107 S2MID[2]
*108 S2MID[3]
*109 S2MID[4]
*110 S2MID[5]
*111 S2MID[6]
*112 S2MID[7]
*113 S4END[0]
*114 S4END[10]
*115 S4END[11]
*116 S4END[12]
*117 S4END[13]
*118 S4END[14]
*119 S4END[15]
*120 S4END[1]
*121 S4END[2]
*122 S4END[3]
*123 S4END[4]
*124 S4END[5]
*125 S4END[6]
*126 S4END[7]
*127 S4END[8]
*128 S4END[9]
*129 SS4END[0]
*130 SS4END[10]
*131 SS4END[11]
*132 SS4END[12]
*133 SS4END[13]
*134 SS4END[14]
*135 SS4END[15]
*136 SS4END[1]
*137 SS4END[2]
*138 SS4END[3]
*139 SS4END[4]
*140 SS4END[5]
*141 SS4END[6]
*142 SS4END[7]
*143 SS4END[8]
*144 SS4END[9]
*145 UserCLK
*146 UserCLKo
*149 FrameStrobe_O_i\[0\]
*150 FrameStrobe_O_i\[10\]
*151 FrameStrobe_O_i\[11\]
*152 FrameStrobe_O_i\[12\]
*153 FrameStrobe_O_i\[13\]
*154 FrameStrobe_O_i\[14\]
*155 FrameStrobe_O_i\[15\]
*156 FrameStrobe_O_i\[16\]
*157 FrameStrobe_O_i\[17\]
*158 FrameStrobe_O_i\[18\]
*159 FrameStrobe_O_i\[19\]
*160 FrameStrobe_O_i\[1\]
*161 FrameStrobe_O_i\[2\]
*162 FrameStrobe_O_i\[3\]
*163 FrameStrobe_O_i\[4\]
*164 FrameStrobe_O_i\[5\]
*165 FrameStrobe_O_i\[6\]
*166 FrameStrobe_O_i\[7\]
*167 FrameStrobe_O_i\[8\]
*168 FrameStrobe_O_i\[9\]
*169 net1
*170 net10
*171 net100
*172 net101
*173 net102
*174 net103
*175 net104
*176 net105
*177 net106
*178 net107
*179 net108
*180 net109
*181 net11
*182 net110
*183 net111
*184 net112
*185 net113
*186 net114
*187 net115
*188 net116
*189 net117
*190 net118
*191 net119
*192 net12
*193 net120
*194 net121
*195 net122
*196 net123
*197 net124
*198 net125
*199 net126
*200 net127
*201 net128
*202 net129
*203 net13
*204 net130
*205 net131
*206 net132
*207 net133
*208 net134
*209 net135
*210 net136
*211 net137
*212 net138
*213 net139
*214 net14
*215 net140
*216 net141
*217 net142
*218 net143
*219 net144
*220 net145
*221 net146
*222 net15
*223 net16
*224 net17
*225 net18
*226 net19
*227 net2
*228 net20
*229 net21
*230 net22
*231 net23
*232 net24
*233 net25
*234 net26
*235 net27
*236 net28
*237 net29
*238 net3
*239 net30
*240 net31
*241 net32
*242 net33
*243 net34
*244 net35
*245 net36
*246 net37
*247 net38
*248 net39
*249 net4
*250 net40
*251 net41
*252 net42
*253 net43
*254 net44
*255 net45
*256 net46
*257 net47
*258 net48
*259 net49
*260 net5
*261 net50
*262 net51
*263 net52
*264 net53
*265 net54
*266 net55
*267 net56
*268 net57
*269 net58
*270 net59
*271 net6
*272 net60
*273 net61
*274 net62
*275 net63
*276 net64
*277 net65
*278 net66
*279 net67
*280 net68
*281 net69
*282 net7
*283 net70
*284 net71
*285 net72
*286 net73
*287 net74
*288 net75
*289 net76
*290 net77
*291 net78
*292 net79
*293 net8
*294 net80
*295 net81
*296 net82
*297 net83
*298 net84
*299 net85
*300 net86
*301 net87
*302 net88
*303 net89
*304 net9
*305 net90
*306 net91
*307 net92
*308 net93
*309 net94
*310 net95
*311 net96
*312 net97
*313 net98
*314 net99
*315 ANTENNA_1
*316 ANTENNA_2
*317 FILLER_0_0_103
*318 FILLER_0_0_111
*319 FILLER_0_0_113
*320 FILLER_0_0_121
*321 FILLER_0_0_127
*322 FILLER_0_0_139
*323 FILLER_0_0_141
*324 FILLER_0_0_147
*325 FILLER_0_0_151
*326 FILLER_0_0_163
*327 FILLER_0_0_167
*328 FILLER_0_0_169
*329 FILLER_0_0_175
*330 FILLER_0_0_187
*331 FILLER_0_0_19
*332 FILLER_0_0_195
*333 FILLER_0_0_200
*334 FILLER_0_0_212
*335 FILLER_0_0_223
*336 FILLER_0_0_225
*337 FILLER_0_0_237
*338 FILLER_0_0_243
*339 FILLER_0_0_247
*340 FILLER_0_0_251
*341 FILLER_0_0_253
*342 FILLER_0_0_265
*343 FILLER_0_0_27
*344 FILLER_0_0_271
*345 FILLER_0_0_279
*346 FILLER_0_0_281
*347 FILLER_0_0_289
*348 FILLER_0_0_295
*349 FILLER_0_0_3
*350 FILLER_0_0_307
*351 FILLER_0_0_309
*352 FILLER_0_0_315
*353 FILLER_0_0_319
*354 FILLER_0_0_32
*355 FILLER_0_0_331
*356 FILLER_0_0_335
*357 FILLER_0_0_337
*358 FILLER_0_0_343
*359 FILLER_0_0_355
*360 FILLER_0_0_363
*361 FILLER_0_0_368
*362 FILLER_0_0_380
*363 FILLER_0_0_391
*364 FILLER_0_0_393
*365 FILLER_0_0_405
*366 FILLER_0_0_411
*367 FILLER_0_0_415
*368 FILLER_0_0_419
*369 FILLER_0_0_421
*370 FILLER_0_0_433
*371 FILLER_0_0_439
*372 FILLER_0_0_44
*373 FILLER_0_0_447
*374 FILLER_0_0_449
*375 FILLER_0_0_457
*376 FILLER_0_0_463
*377 FILLER_0_0_475
*378 FILLER_0_0_477
*379 FILLER_0_0_55
*380 FILLER_0_0_57
*381 FILLER_0_0_69
*382 FILLER_0_0_7
*383 FILLER_0_0_75
*384 FILLER_0_0_79
*385 FILLER_0_0_83
*386 FILLER_0_0_85
*387 FILLER_0_0_97
*388 FILLER_0_10_109
*389 FILLER_0_10_121
*390 FILLER_0_10_133
*391 FILLER_0_10_139
*392 FILLER_0_10_141
*393 FILLER_0_10_15
*394 FILLER_0_10_153
*395 FILLER_0_10_165
*396 FILLER_0_10_177
*397 FILLER_0_10_189
*398 FILLER_0_10_195
*399 FILLER_0_10_197
*400 FILLER_0_10_209
*401 FILLER_0_10_221
*402 FILLER_0_10_233
*403 FILLER_0_10_240
*404 FILLER_0_10_253
*405 FILLER_0_10_265
*406 FILLER_0_10_27
*407 FILLER_0_10_277
*408 FILLER_0_10_289
*409 FILLER_0_10_29
*410 FILLER_0_10_3
*411 FILLER_0_10_301
*412 FILLER_0_10_307
*413 FILLER_0_10_309
*414 FILLER_0_10_321
*415 FILLER_0_10_333
*416 FILLER_0_10_345
*417 FILLER_0_10_357
*418 FILLER_0_10_363
*419 FILLER_0_10_365
*420 FILLER_0_10_377
*421 FILLER_0_10_389
*422 FILLER_0_10_401
*423 FILLER_0_10_41
*424 FILLER_0_10_413
*425 FILLER_0_10_419
*426 FILLER_0_10_421
*427 FILLER_0_10_433
*428 FILLER_0_10_445
*429 FILLER_0_10_457
*430 FILLER_0_10_469
*431 FILLER_0_10_475
*432 FILLER_0_10_53
*433 FILLER_0_10_65
*434 FILLER_0_10_77
*435 FILLER_0_10_83
*436 FILLER_0_10_85
*437 FILLER_0_10_97
*438 FILLER_0_11_105
*439 FILLER_0_11_111
*440 FILLER_0_11_113
*441 FILLER_0_11_125
*442 FILLER_0_11_13
*443 FILLER_0_11_137
*444 FILLER_0_11_149
*445 FILLER_0_11_161
*446 FILLER_0_11_167
*447 FILLER_0_11_169
*448 FILLER_0_11_181
*449 FILLER_0_11_199
*450 FILLER_0_11_203
*451 FILLER_0_11_207
*452 FILLER_0_11_215
*453 FILLER_0_11_219
*454 FILLER_0_11_223
*455 FILLER_0_11_243
*456 FILLER_0_11_25
*457 FILLER_0_11_251
*458 FILLER_0_11_263
*459 FILLER_0_11_275
*460 FILLER_0_11_279
*461 FILLER_0_11_281
*462 FILLER_0_11_293
*463 FILLER_0_11_305
*464 FILLER_0_11_317
*465 FILLER_0_11_329
*466 FILLER_0_11_335
*467 FILLER_0_11_337
*468 FILLER_0_11_349
*469 FILLER_0_11_361
*470 FILLER_0_11_37
*471 FILLER_0_11_373
*472 FILLER_0_11_385
*473 FILLER_0_11_391
*474 FILLER_0_11_393
*475 FILLER_0_11_405
*476 FILLER_0_11_417
*477 FILLER_0_11_429
*478 FILLER_0_11_441
*479 FILLER_0_11_447
*480 FILLER_0_11_449
*481 FILLER_0_11_461
*482 FILLER_0_11_481
*483 FILLER_0_11_49
*484 FILLER_0_11_55
*485 FILLER_0_11_57
*486 FILLER_0_11_69
*487 FILLER_0_11_81
*488 FILLER_0_11_93
*489 FILLER_0_12_100
*490 FILLER_0_12_112
*491 FILLER_0_12_120
*492 FILLER_0_12_128
*493 FILLER_0_12_141
*494 FILLER_0_12_148
*495 FILLER_0_12_160
*496 FILLER_0_12_172
*497 FILLER_0_12_178
*498 FILLER_0_12_192
*499 FILLER_0_12_197
*500 FILLER_0_12_22
*501 FILLER_0_12_253
*502 FILLER_0_12_279
*503 FILLER_0_12_283
*504 FILLER_0_12_287
*505 FILLER_0_12_29
*506 FILLER_0_12_291
*507 FILLER_0_12_295
*508 FILLER_0_12_299
*509 FILLER_0_12_3
*510 FILLER_0_12_303
*511 FILLER_0_12_307
*512 FILLER_0_12_309
*513 FILLER_0_12_321
*514 FILLER_0_12_333
*515 FILLER_0_12_345
*516 FILLER_0_12_357
*517 FILLER_0_12_363
*518 FILLER_0_12_365
*519 FILLER_0_12_377
*520 FILLER_0_12_389
*521 FILLER_0_12_40
*522 FILLER_0_12_401
*523 FILLER_0_12_413
*524 FILLER_0_12_419
*525 FILLER_0_12_421
*526 FILLER_0_12_437
*527 FILLER_0_12_449
*528 FILLER_0_12_461
*529 FILLER_0_12_474
*530 FILLER_0_12_52
*531 FILLER_0_12_68
*532 FILLER_0_12_80
*533 FILLER_0_12_85
*534 FILLER_0_12_92
*535 FILLER_0_13_113
*536 FILLER_0_13_12
*537 FILLER_0_13_124
*538 FILLER_0_13_141
*539 FILLER_0_13_156
*540 FILLER_0_13_169
*541 FILLER_0_13_190
*542 FILLER_0_13_197
*543 FILLER_0_13_210
*544 FILLER_0_13_225
*545 FILLER_0_13_250
*546 FILLER_0_13_259
*547 FILLER_0_13_263
*548 FILLER_0_13_267
*549 FILLER_0_13_271
*550 FILLER_0_13_275
*551 FILLER_0_13_279
*552 FILLER_0_13_287
*553 FILLER_0_13_29
*554 FILLER_0_13_291
*555 FILLER_0_13_295
*556 FILLER_0_13_299
*557 FILLER_0_13_3
*558 FILLER_0_13_303
*559 FILLER_0_13_307
*560 FILLER_0_13_315
*561 FILLER_0_13_319
*562 FILLER_0_13_323
*563 FILLER_0_13_327
*564 FILLER_0_13_331
*565 FILLER_0_13_335
*566 FILLER_0_13_343
*567 FILLER_0_13_347
*568 FILLER_0_13_351
*569 FILLER_0_13_355
*570 FILLER_0_13_359
*571 FILLER_0_13_363
*572 FILLER_0_13_371
*573 FILLER_0_13_375
*574 FILLER_0_13_379
*575 FILLER_0_13_383
*576 FILLER_0_13_387
*577 FILLER_0_13_391
*578 FILLER_0_13_399
*579 FILLER_0_13_403
*580 FILLER_0_13_407
*581 FILLER_0_13_411
*582 FILLER_0_13_447
*583 FILLER_0_13_46
*584 FILLER_0_13_475
*585 FILLER_0_13_50
*586 FILLER_0_13_57
*587 FILLER_0_13_64
*588 FILLER_0_13_8
*589 FILLER_0_13_85
*590 FILLER_0_1_105
*591 FILLER_0_1_111
*592 FILLER_0_1_113
*593 FILLER_0_1_125
*594 FILLER_0_1_137
*595 FILLER_0_1_149
*596 FILLER_0_1_15
*597 FILLER_0_1_161
*598 FILLER_0_1_167
*599 FILLER_0_1_169
*600 FILLER_0_1_181
*601 FILLER_0_1_193
*602 FILLER_0_1_204
*603 FILLER_0_1_216
*604 FILLER_0_1_225
*605 FILLER_0_1_236
*606 FILLER_0_1_244
*607 FILLER_0_1_250
*608 FILLER_0_1_254
*609 FILLER_0_1_266
*610 FILLER_0_1_27
*611 FILLER_0_1_278
*612 FILLER_0_1_281
*613 FILLER_0_1_293
*614 FILLER_0_1_3
*615 FILLER_0_1_305
*616 FILLER_0_1_317
*617 FILLER_0_1_326
*618 FILLER_0_1_334
*619 FILLER_0_1_337
*620 FILLER_0_1_349
*621 FILLER_0_1_361
*622 FILLER_0_1_373
*623 FILLER_0_1_385
*624 FILLER_0_1_39
*625 FILLER_0_1_391
*626 FILLER_0_1_396
*627 FILLER_0_1_408
*628 FILLER_0_1_420
*629 FILLER_0_1_432
*630 FILLER_0_1_440
*631 FILLER_0_1_445
*632 FILLER_0_1_449
*633 FILLER_0_1_461
*634 FILLER_0_1_468
*635 FILLER_0_1_472
*636 FILLER_0_1_476
*637 FILLER_0_1_482
*638 FILLER_0_1_51
*639 FILLER_0_1_55
*640 FILLER_0_1_57
*641 FILLER_0_1_69
*642 FILLER_0_1_81
*643 FILLER_0_1_93
*644 FILLER_0_2_109
*645 FILLER_0_2_121
*646 FILLER_0_2_133
*647 FILLER_0_2_139
*648 FILLER_0_2_141
*649 FILLER_0_2_15
*650 FILLER_0_2_153
*651 FILLER_0_2_165
*652 FILLER_0_2_177
*653 FILLER_0_2_189
*654 FILLER_0_2_195
*655 FILLER_0_2_197
*656 FILLER_0_2_209
*657 FILLER_0_2_215
*658 FILLER_0_2_227
*659 FILLER_0_2_241
*660 FILLER_0_2_245
*661 FILLER_0_2_250
*662 FILLER_0_2_253
*663 FILLER_0_2_257
*664 FILLER_0_2_261
*665 FILLER_0_2_27
*666 FILLER_0_2_273
*667 FILLER_0_2_285
*668 FILLER_0_2_29
*669 FILLER_0_2_297
*670 FILLER_0_2_3
*671 FILLER_0_2_302
*672 FILLER_0_2_309
*673 FILLER_0_2_321
*674 FILLER_0_2_329
*675 FILLER_0_2_333
*676 FILLER_0_2_345
*677 FILLER_0_2_357
*678 FILLER_0_2_363
*679 FILLER_0_2_365
*680 FILLER_0_2_377
*681 FILLER_0_2_389
*682 FILLER_0_2_401
*683 FILLER_0_2_406
*684 FILLER_0_2_41
*685 FILLER_0_2_418
*686 FILLER_0_2_421
*687 FILLER_0_2_433
*688 FILLER_0_2_445
*689 FILLER_0_2_457
*690 FILLER_0_2_469
*691 FILLER_0_2_53
*692 FILLER_0_2_65
*693 FILLER_0_2_77
*694 FILLER_0_2_83
*695 FILLER_0_2_85
*696 FILLER_0_2_97
*697 FILLER_0_3_105
*698 FILLER_0_3_111
*699 FILLER_0_3_113
*700 FILLER_0_3_125
*701 FILLER_0_3_137
*702 FILLER_0_3_149
*703 FILLER_0_3_15
*704 FILLER_0_3_161
*705 FILLER_0_3_167
*706 FILLER_0_3_169
*707 FILLER_0_3_181
*708 FILLER_0_3_193
*709 FILLER_0_3_205
*710 FILLER_0_3_217
*711 FILLER_0_3_223
*712 FILLER_0_3_225
*713 FILLER_0_3_237
*714 FILLER_0_3_247
*715 FILLER_0_3_259
*716 FILLER_0_3_27
*717 FILLER_0_3_271
*718 FILLER_0_3_278
*719 FILLER_0_3_281
*720 FILLER_0_3_293
*721 FILLER_0_3_3
*722 FILLER_0_3_305
*723 FILLER_0_3_309
*724 FILLER_0_3_321
*725 FILLER_0_3_333
*726 FILLER_0_3_337
*727 FILLER_0_3_349
*728 FILLER_0_3_361
*729 FILLER_0_3_373
*730 FILLER_0_3_385
*731 FILLER_0_3_39
*732 FILLER_0_3_391
*733 FILLER_0_3_393
*734 FILLER_0_3_405
*735 FILLER_0_3_417
*736 FILLER_0_3_421
*737 FILLER_0_3_433
*738 FILLER_0_3_445
*739 FILLER_0_3_449
*740 FILLER_0_3_461
*741 FILLER_0_3_473
*742 FILLER_0_3_481
*743 FILLER_0_3_51
*744 FILLER_0_3_55
*745 FILLER_0_3_57
*746 FILLER_0_3_69
*747 FILLER_0_3_81
*748 FILLER_0_3_93
*749 FILLER_0_4_109
*750 FILLER_0_4_121
*751 FILLER_0_4_133
*752 FILLER_0_4_139
*753 FILLER_0_4_141
*754 FILLER_0_4_15
*755 FILLER_0_4_153
*756 FILLER_0_4_165
*757 FILLER_0_4_177
*758 FILLER_0_4_189
*759 FILLER_0_4_195
*760 FILLER_0_4_197
*761 FILLER_0_4_209
*762 FILLER_0_4_221
*763 FILLER_0_4_230
*764 FILLER_0_4_242
*765 FILLER_0_4_246
*766 FILLER_0_4_250
*767 FILLER_0_4_253
*768 FILLER_0_4_265
*769 FILLER_0_4_27
*770 FILLER_0_4_277
*771 FILLER_0_4_289
*772 FILLER_0_4_29
*773 FILLER_0_4_3
*774 FILLER_0_4_301
*775 FILLER_0_4_307
*776 FILLER_0_4_309
*777 FILLER_0_4_321
*778 FILLER_0_4_333
*779 FILLER_0_4_345
*780 FILLER_0_4_350
*781 FILLER_0_4_362
*782 FILLER_0_4_365
*783 FILLER_0_4_377
*784 FILLER_0_4_389
*785 FILLER_0_4_401
*786 FILLER_0_4_41
*787 FILLER_0_4_413
*788 FILLER_0_4_419
*789 FILLER_0_4_421
*790 FILLER_0_4_433
*791 FILLER_0_4_445
*792 FILLER_0_4_457
*793 FILLER_0_4_469
*794 FILLER_0_4_475
*795 FILLER_0_4_477
*796 FILLER_0_4_53
*797 FILLER_0_4_65
*798 FILLER_0_4_77
*799 FILLER_0_4_83
*800 FILLER_0_4_85
*801 FILLER_0_4_97
*802 FILLER_0_5_105
*803 FILLER_0_5_111
*804 FILLER_0_5_113
*805 FILLER_0_5_125
*806 FILLER_0_5_137
*807 FILLER_0_5_149
*808 FILLER_0_5_15
*809 FILLER_0_5_161
*810 FILLER_0_5_167
*811 FILLER_0_5_169
*812 FILLER_0_5_181
*813 FILLER_0_5_193
*814 FILLER_0_5_205
*815 FILLER_0_5_217
*816 FILLER_0_5_223
*817 FILLER_0_5_225
*818 FILLER_0_5_233
*819 FILLER_0_5_240
*820 FILLER_0_5_244
*821 FILLER_0_5_248
*822 FILLER_0_5_260
*823 FILLER_0_5_27
*824 FILLER_0_5_272
*825 FILLER_0_5_281
*826 FILLER_0_5_285
*827 FILLER_0_5_297
*828 FILLER_0_5_3
*829 FILLER_0_5_309
*830 FILLER_0_5_321
*831 FILLER_0_5_333
*832 FILLER_0_5_337
*833 FILLER_0_5_349
*834 FILLER_0_5_353
*835 FILLER_0_5_357
*836 FILLER_0_5_369
*837 FILLER_0_5_374
*838 FILLER_0_5_386
*839 FILLER_0_5_39
*840 FILLER_0_5_393
*841 FILLER_0_5_405
*842 FILLER_0_5_417
*843 FILLER_0_5_429
*844 FILLER_0_5_441
*845 FILLER_0_5_447
*846 FILLER_0_5_449
*847 FILLER_0_5_461
*848 FILLER_0_5_469
*849 FILLER_0_5_473
*850 FILLER_0_5_481
*851 FILLER_0_5_51
*852 FILLER_0_5_55
*853 FILLER_0_5_57
*854 FILLER_0_5_69
*855 FILLER_0_5_81
*856 FILLER_0_5_93
*857 FILLER_0_6_109
*858 FILLER_0_6_121
*859 FILLER_0_6_133
*860 FILLER_0_6_139
*861 FILLER_0_6_141
*862 FILLER_0_6_15
*863 FILLER_0_6_153
*864 FILLER_0_6_165
*865 FILLER_0_6_177
*866 FILLER_0_6_189
*867 FILLER_0_6_195
*868 FILLER_0_6_197
*869 FILLER_0_6_209
*870 FILLER_0_6_221
*871 FILLER_0_6_233
*872 FILLER_0_6_241
*873 FILLER_0_6_247
*874 FILLER_0_6_251
*875 FILLER_0_6_253
*876 FILLER_0_6_265
*877 FILLER_0_6_27
*878 FILLER_0_6_277
*879 FILLER_0_6_289
*880 FILLER_0_6_29
*881 FILLER_0_6_3
*882 FILLER_0_6_301
*883 FILLER_0_6_307
*884 FILLER_0_6_309
*885 FILLER_0_6_321
*886 FILLER_0_6_333
*887 FILLER_0_6_345
*888 FILLER_0_6_357
*889 FILLER_0_6_363
*890 FILLER_0_6_365
*891 FILLER_0_6_377
*892 FILLER_0_6_381
*893 FILLER_0_6_393
*894 FILLER_0_6_405
*895 FILLER_0_6_41
*896 FILLER_0_6_417
*897 FILLER_0_6_421
*898 FILLER_0_6_433
*899 FILLER_0_6_445
*900 FILLER_0_6_457
*901 FILLER_0_6_469
*902 FILLER_0_6_475
*903 FILLER_0_6_477
*904 FILLER_0_6_53
*905 FILLER_0_6_65
*906 FILLER_0_6_77
*907 FILLER_0_6_83
*908 FILLER_0_6_85
*909 FILLER_0_6_97
*910 FILLER_0_7_105
*911 FILLER_0_7_111
*912 FILLER_0_7_113
*913 FILLER_0_7_125
*914 FILLER_0_7_137
*915 FILLER_0_7_149
*916 FILLER_0_7_15
*917 FILLER_0_7_161
*918 FILLER_0_7_167
*919 FILLER_0_7_169
*920 FILLER_0_7_181
*921 FILLER_0_7_193
*922 FILLER_0_7_205
*923 FILLER_0_7_217
*924 FILLER_0_7_223
*925 FILLER_0_7_225
*926 FILLER_0_7_237
*927 FILLER_0_7_249
*928 FILLER_0_7_261
*929 FILLER_0_7_27
*930 FILLER_0_7_273
*931 FILLER_0_7_279
*932 FILLER_0_7_281
*933 FILLER_0_7_293
*934 FILLER_0_7_3
*935 FILLER_0_7_305
*936 FILLER_0_7_317
*937 FILLER_0_7_329
*938 FILLER_0_7_335
*939 FILLER_0_7_337
*940 FILLER_0_7_349
*941 FILLER_0_7_361
*942 FILLER_0_7_373
*943 FILLER_0_7_385
*944 FILLER_0_7_39
*945 FILLER_0_7_391
*946 FILLER_0_7_393
*947 FILLER_0_7_405
*948 FILLER_0_7_417
*949 FILLER_0_7_429
*950 FILLER_0_7_441
*951 FILLER_0_7_447
*952 FILLER_0_7_449
*953 FILLER_0_7_461
*954 FILLER_0_7_473
*955 FILLER_0_7_481
*956 FILLER_0_7_51
*957 FILLER_0_7_55
*958 FILLER_0_7_57
*959 FILLER_0_7_69
*960 FILLER_0_7_81
*961 FILLER_0_7_93
*962 FILLER_0_8_109
*963 FILLER_0_8_121
*964 FILLER_0_8_133
*965 FILLER_0_8_139
*966 FILLER_0_8_141
*967 FILLER_0_8_15
*968 FILLER_0_8_153
*969 FILLER_0_8_165
*970 FILLER_0_8_177
*971 FILLER_0_8_189
*972 FILLER_0_8_195
*973 FILLER_0_8_197
*974 FILLER_0_8_209
*975 FILLER_0_8_221
*976 FILLER_0_8_233
*977 FILLER_0_8_245
*978 FILLER_0_8_251
*979 FILLER_0_8_253
*980 FILLER_0_8_265
*981 FILLER_0_8_27
*982 FILLER_0_8_277
*983 FILLER_0_8_289
*984 FILLER_0_8_29
*985 FILLER_0_8_3
*986 FILLER_0_8_301
*987 FILLER_0_8_307
*988 FILLER_0_8_309
*989 FILLER_0_8_321
*990 FILLER_0_8_333
*991 FILLER_0_8_345
*992 FILLER_0_8_357
*993 FILLER_0_8_363
*994 FILLER_0_8_365
*995 FILLER_0_8_377
*996 FILLER_0_8_389
*997 FILLER_0_8_401
*998 FILLER_0_8_41
*999 FILLER_0_8_413
*1000 FILLER_0_8_419
*1001 FILLER_0_8_421
*1002 FILLER_0_8_433
*1003 FILLER_0_8_445
*1004 FILLER_0_8_457
*1005 FILLER_0_8_469
*1006 FILLER_0_8_475
*1007 FILLER_0_8_477
*1008 FILLER_0_8_53
*1009 FILLER_0_8_65
*1010 FILLER_0_8_77
*1011 FILLER_0_8_83
*1012 FILLER_0_8_85
*1013 FILLER_0_8_97
*1014 FILLER_0_9_105
*1015 FILLER_0_9_111
*1016 FILLER_0_9_113
*1017 FILLER_0_9_125
*1018 FILLER_0_9_137
*1019 FILLER_0_9_149
*1020 FILLER_0_9_15
*1021 FILLER_0_9_161
*1022 FILLER_0_9_167
*1023 FILLER_0_9_169
*1024 FILLER_0_9_181
*1025 FILLER_0_9_193
*1026 FILLER_0_9_205
*1027 FILLER_0_9_217
*1028 FILLER_0_9_223
*1029 FILLER_0_9_225
*1030 FILLER_0_9_237
*1031 FILLER_0_9_249
*1032 FILLER_0_9_261
*1033 FILLER_0_9_27
*1034 FILLER_0_9_273
*1035 FILLER_0_9_279
*1036 FILLER_0_9_281
*1037 FILLER_0_9_293
*1038 FILLER_0_9_3
*1039 FILLER_0_9_305
*1040 FILLER_0_9_317
*1041 FILLER_0_9_329
*1042 FILLER_0_9_335
*1043 FILLER_0_9_337
*1044 FILLER_0_9_349
*1045 FILLER_0_9_361
*1046 FILLER_0_9_373
*1047 FILLER_0_9_385
*1048 FILLER_0_9_39
*1049 FILLER_0_9_391
*1050 FILLER_0_9_393
*1051 FILLER_0_9_405
*1052 FILLER_0_9_417
*1053 FILLER_0_9_429
*1054 FILLER_0_9_441
*1055 FILLER_0_9_447
*1056 FILLER_0_9_449
*1057 FILLER_0_9_461
*1058 FILLER_0_9_473
*1059 FILLER_0_9_481
*1060 FILLER_0_9_51
*1061 FILLER_0_9_55
*1062 FILLER_0_9_57
*1063 FILLER_0_9_69
*1064 FILLER_0_9_81
*1065 FILLER_0_9_93
*1066 Inst_S_term_single2_switch_matrix/_00_
*1067 Inst_S_term_single2_switch_matrix/_01_
*1068 Inst_S_term_single2_switch_matrix/_02_
*1069 Inst_S_term_single2_switch_matrix/_03_
*1070 Inst_S_term_single2_switch_matrix/_04_
*1071 Inst_S_term_single2_switch_matrix/_05_
*1072 Inst_S_term_single2_switch_matrix/_06_
*1073 Inst_S_term_single2_switch_matrix/_07_
*1074 Inst_S_term_single2_switch_matrix/_08_
*1075 Inst_S_term_single2_switch_matrix/_09_
*1076 Inst_S_term_single2_switch_matrix/_10_
*1077 Inst_S_term_single2_switch_matrix/_11_
*1078 Inst_S_term_single2_switch_matrix/_12_
*1079 Inst_S_term_single2_switch_matrix/_13_
*1080 Inst_S_term_single2_switch_matrix/_14_
*1081 Inst_S_term_single2_switch_matrix/_15_
*1082 Inst_S_term_single2_switch_matrix/_16_
*1083 Inst_S_term_single2_switch_matrix/_17_
*1084 Inst_S_term_single2_switch_matrix/_18_
*1085 Inst_S_term_single2_switch_matrix/_19_
*1086 Inst_S_term_single2_switch_matrix/_20_
*1087 Inst_S_term_single2_switch_matrix/_21_
*1088 Inst_S_term_single2_switch_matrix/_22_
*1089 Inst_S_term_single2_switch_matrix/_23_
*1090 Inst_S_term_single2_switch_matrix/_24_
*1091 Inst_S_term_single2_switch_matrix/_25_
*1092 Inst_S_term_single2_switch_matrix/_26_
*1093 Inst_S_term_single2_switch_matrix/_27_
*1094 Inst_S_term_single2_switch_matrix/_28_
*1095 Inst_S_term_single2_switch_matrix/_29_
*1096 Inst_S_term_single2_switch_matrix/_30_
*1097 Inst_S_term_single2_switch_matrix/_31_
*1098 Inst_S_term_single2_switch_matrix/_32_
*1099 Inst_S_term_single2_switch_matrix/_33_
*1100 Inst_S_term_single2_switch_matrix/_34_
*1101 Inst_S_term_single2_switch_matrix/_35_
*1102 Inst_S_term_single2_switch_matrix/_36_
*1103 Inst_S_term_single2_switch_matrix/_37_
*1104 Inst_S_term_single2_switch_matrix/_38_
*1105 Inst_S_term_single2_switch_matrix/_39_
*1106 Inst_S_term_single2_switch_matrix/_40_
*1107 Inst_S_term_single2_switch_matrix/_41_
*1108 Inst_S_term_single2_switch_matrix/_42_
*1109 Inst_S_term_single2_switch_matrix/_43_
*1110 Inst_S_term_single2_switch_matrix/_44_
*1111 Inst_S_term_single2_switch_matrix/_45_
*1112 Inst_S_term_single2_switch_matrix/_46_
*1113 Inst_S_term_single2_switch_matrix/_47_
*1114 Inst_S_term_single2_switch_matrix/_48_
*1115 Inst_S_term_single2_switch_matrix/_49_
*1116 Inst_S_term_single2_switch_matrix/_50_
*1117 Inst_S_term_single2_switch_matrix/_51_
*1118 PHY_0
*1119 PHY_1
*1120 PHY_10
*1121 PHY_11
*1122 PHY_12
*1123 PHY_13
*1124 PHY_14
*1125 PHY_15
*1126 PHY_16
*1127 PHY_17
*1128 PHY_18
*1129 PHY_19
*1130 PHY_2
*1131 PHY_20
*1132 PHY_21
*1133 PHY_22
*1134 PHY_23
*1135 PHY_24
*1136 PHY_25
*1137 PHY_26
*1138 PHY_27
*1139 PHY_3
*1140 PHY_4
*1141 PHY_5
*1142 PHY_6
*1143 PHY_7
*1144 PHY_8
*1145 PHY_9
*1146 TAP_100
*1147 TAP_101
*1148 TAP_102
*1149 TAP_103
*1150 TAP_104
*1151 TAP_105
*1152 TAP_106
*1153 TAP_107
*1154 TAP_108
*1155 TAP_109
*1156 TAP_110
*1157 TAP_111
*1158 TAP_112
*1159 TAP_113
*1160 TAP_114
*1161 TAP_115
*1162 TAP_116
*1163 TAP_117
*1164 TAP_118
*1165 TAP_119
*1166 TAP_120
*1167 TAP_121
*1168 TAP_122
*1169 TAP_123
*1170 TAP_124
*1171 TAP_125
*1172 TAP_126
*1173 TAP_127
*1174 TAP_128
*1175 TAP_129
*1176 TAP_130
*1177 TAP_131
*1178 TAP_132
*1179 TAP_133
*1180 TAP_134
*1181 TAP_135
*1182 TAP_136
*1183 TAP_137
*1184 TAP_138
*1185 TAP_139
*1186 TAP_140
*1187 TAP_141
*1188 TAP_142
*1189 TAP_143
*1190 TAP_144
*1191 TAP_145
*1192 TAP_146
*1193 TAP_147
*1194 TAP_148
*1195 TAP_149
*1196 TAP_150
*1197 TAP_151
*1198 TAP_152
*1199 TAP_153
*1200 TAP_154
*1201 TAP_155
*1202 TAP_156
*1203 TAP_157
*1204 TAP_158
*1205 TAP_159
*1206 TAP_160
*1207 TAP_161
*1208 TAP_162
*1209 TAP_163
*1210 TAP_28
*1211 TAP_29
*1212 TAP_30
*1213 TAP_31
*1214 TAP_32
*1215 TAP_33
*1216 TAP_34
*1217 TAP_35
*1218 TAP_36
*1219 TAP_37
*1220 TAP_38
*1221 TAP_39
*1222 TAP_40
*1223 TAP_41
*1224 TAP_42
*1225 TAP_43
*1226 TAP_44
*1227 TAP_45
*1228 TAP_46
*1229 TAP_47
*1230 TAP_48
*1231 TAP_49
*1232 TAP_50
*1233 TAP_51
*1234 TAP_52
*1235 TAP_53
*1236 TAP_54
*1237 TAP_55
*1238 TAP_56
*1239 TAP_57
*1240 TAP_58
*1241 TAP_59
*1242 TAP_60
*1243 TAP_61
*1244 TAP_62
*1245 TAP_63
*1246 TAP_64
*1247 TAP_65
*1248 TAP_66
*1249 TAP_67
*1250 TAP_68
*1251 TAP_69
*1252 TAP_70
*1253 TAP_71
*1254 TAP_72
*1255 TAP_73
*1256 TAP_74
*1257 TAP_75
*1258 TAP_76
*1259 TAP_77
*1260 TAP_78
*1261 TAP_79
*1262 TAP_80
*1263 TAP_81
*1264 TAP_82
*1265 TAP_83
*1266 TAP_84
*1267 TAP_85
*1268 TAP_86
*1269 TAP_87
*1270 TAP_88
*1271 TAP_89
*1272 TAP_90
*1273 TAP_91
*1274 TAP_92
*1275 TAP_93
*1276 TAP_94
*1277 TAP_95
*1278 TAP_96
*1279 TAP_97
*1280 TAP_98
*1281 TAP_99
*1282 input1
*1283 input10
*1284 input11
*1285 input12
*1286 input13
*1287 input14
*1288 input15
*1289 input16
*1290 input17
*1291 input18
*1292 input19
*1293 input2
*1294 input20
*1295 input21
*1296 input22
*1297 input23
*1298 input24
*1299 input25
*1300 input26
*1301 input27
*1302 input28
*1303 input29
*1304 input3
*1305 input30
*1306 input31
*1307 input32
*1308 input33
*1309 input34
*1310 input35
*1311 input36
*1312 input37
*1313 input38
*1314 input39
*1315 input4
*1316 input40
*1317 input41
*1318 input42
*1319 input43
*1320 input44
*1321 input45
*1322 input46
*1323 input47
*1324 input48
*1325 input49
*1326 input5
*1327 input50
*1328 input51
*1329 input52
*1330 input53
*1331 input54
*1332 input55
*1333 input56
*1334 input57
*1335 input58
*1336 input59
*1337 input6
*1338 input60
*1339 input61
*1340 input62
*1341 input63
*1342 input64
*1343 input65
*1344 input66
*1345 input67
*1346 input68
*1347 input69
*1348 input7
*1349 input70
*1350 input71
*1351 input72
*1352 input73
*1353 input8
*1354 input9
*1355 inst_clk_buf
*1356 output100
*1357 output101
*1358 output102
*1359 output103
*1360 output104
*1361 output105
*1362 output106
*1363 output107
*1364 output108
*1365 output109
*1366 output110
*1367 output111
*1368 output112
*1369 output113
*1370 output114
*1371 output115
*1372 output116
*1373 output117
*1374 output118
*1375 output119
*1376 output120
*1377 output121
*1378 output122
*1379 output123
*1380 output124
*1381 output125
*1382 output126
*1383 output127
*1384 output128
*1385 output129
*1386 output130
*1387 output131
*1388 output132
*1389 output133
*1390 output134
*1391 output135
*1392 output136
*1393 output137
*1394 output138
*1395 output139
*1396 output140
*1397 output141
*1398 output142
*1399 output143
*1400 output144
*1401 output145
*1402 output146
*1403 output74
*1404 output75
*1405 output76
*1406 output77
*1407 output78
*1408 output79
*1409 output80
*1410 output81
*1411 output82
*1412 output83
*1413 output84
*1414 output85
*1415 output86
*1416 output87
*1417 output88
*1418 output89
*1419 output90
*1420 output91
*1421 output92
*1422 output93
*1423 output94
*1424 output95
*1425 output96
*1426 output97
*1427 output98
*1428 output99
*1429 strobe_inbuf_0/_0_
*1430 strobe_inbuf_1/_0_
*1431 strobe_inbuf_10/_0_
*1432 strobe_inbuf_11/_0_
*1433 strobe_inbuf_12/_0_
*1434 strobe_inbuf_13/_0_
*1435 strobe_inbuf_14/_0_
*1436 strobe_inbuf_15/_0_
*1437 strobe_inbuf_16/_0_
*1438 strobe_inbuf_17/_0_
*1439 strobe_inbuf_18/_0_
*1440 strobe_inbuf_19/_0_
*1441 strobe_inbuf_2/_0_
*1442 strobe_inbuf_3/_0_
*1443 strobe_inbuf_4/_0_
*1444 strobe_inbuf_5/_0_
*1445 strobe_inbuf_6/_0_
*1446 strobe_inbuf_7/_0_
*1447 strobe_inbuf_8/_0_
*1448 strobe_inbuf_9/_0_
*1449 strobe_outbuf_0/_0_
*1450 strobe_outbuf_1/_0_
*1451 strobe_outbuf_10/_0_
*1452 strobe_outbuf_11/_0_
*1453 strobe_outbuf_12/_0_
*1454 strobe_outbuf_13/_0_
*1455 strobe_outbuf_14/_0_
*1456 strobe_outbuf_15/_0_
*1457 strobe_outbuf_16/_0_
*1458 strobe_outbuf_17/_0_
*1459 strobe_outbuf_18/_0_
*1460 strobe_outbuf_19/_0_
*1461 strobe_outbuf_2/_0_
*1462 strobe_outbuf_3/_0_
*1463 strobe_outbuf_4/_0_
*1464 strobe_outbuf_5/_0_
*1465 strobe_outbuf_6/_0_
*1466 strobe_outbuf_7/_0_
*1467 strobe_outbuf_8/_0_
*1468 strobe_outbuf_9/_0_

*PORTS
FrameStrobe[0] I
FrameStrobe[10] I
FrameStrobe[11] I
FrameStrobe[12] I
FrameStrobe[13] I
FrameStrobe[14] I
FrameStrobe[15] I
FrameStrobe[16] I
FrameStrobe[17] I
FrameStrobe[18] I
FrameStrobe[19] I
FrameStrobe[1] I
FrameStrobe[2] I
FrameStrobe[3] I
FrameStrobe[4] I
FrameStrobe[5] I
FrameStrobe[6] I
FrameStrobe[7] I
FrameStrobe[8] I
FrameStrobe[9] I
FrameStrobe_O[0] O
FrameStrobe_O[10] O
FrameStrobe_O[11] O
FrameStrobe_O[12] O
FrameStrobe_O[13] O
FrameStrobe_O[14] O
FrameStrobe_O[15] O
FrameStrobe_O[16] O
FrameStrobe_O[17] O
FrameStrobe_O[18] O
FrameStrobe_O[19] O
FrameStrobe_O[1] O
FrameStrobe_O[2] O
FrameStrobe_O[3] O
FrameStrobe_O[4] O
FrameStrobe_O[5] O
FrameStrobe_O[6] O
FrameStrobe_O[7] O
FrameStrobe_O[8] O
FrameStrobe_O[9] O
N1BEG[0] O
N1BEG[1] O
N1BEG[2] O
N1BEG[3] O
N2BEG[0] O
N2BEG[1] O
N2BEG[2] O
N2BEG[3] O
N2BEG[4] O
N2BEG[5] O
N2BEG[6] O
N2BEG[7] O
N2BEGb[0] O
N2BEGb[1] O
N2BEGb[2] O
N2BEGb[3] O
N2BEGb[4] O
N2BEGb[5] O
N2BEGb[6] O
N2BEGb[7] O
N4BEG[0] O
N4BEG[10] O
N4BEG[11] O
N4BEG[12] O
N4BEG[13] O
N4BEG[14] O
N4BEG[15] O
N4BEG[1] O
N4BEG[2] O
N4BEG[3] O
N4BEG[4] O
N4BEG[5] O
N4BEG[6] O
N4BEG[7] O
N4BEG[8] O
N4BEG[9] O
NN4BEG[0] O
NN4BEG[10] O
NN4BEG[11] O
NN4BEG[12] O
NN4BEG[13] O
NN4BEG[14] O
NN4BEG[15] O
NN4BEG[1] O
NN4BEG[2] O
NN4BEG[3] O
NN4BEG[4] O
NN4BEG[5] O
NN4BEG[6] O
NN4BEG[7] O
NN4BEG[8] O
NN4BEG[9] O
S1END[0] I
S1END[1] I
S1END[2] I
S1END[3] I
S2END[0] I
S2END[1] I
S2END[2] I
S2END[3] I
S2END[4] I
S2END[5] I
S2END[6] I
S2END[7] I
S2MID[0] I
S2MID[1] I
S2MID[2] I
S2MID[3] I
S2MID[4] I
S2MID[5] I
S2MID[6] I
S2MID[7] I
S4END[0] I
S4END[10] I
S4END[11] I
S4END[12] I
S4END[13] I
S4END[14] I
S4END[15] I
S4END[1] I
S4END[2] I
S4END[3] I
S4END[4] I
S4END[5] I
S4END[6] I
S4END[7] I
S4END[8] I
S4END[9] I
SS4END[0] I
SS4END[10] I
SS4END[11] I
SS4END[12] I
SS4END[13] I
SS4END[14] I
SS4END[15] I
SS4END[1] I
SS4END[2] I
SS4END[3] I
SS4END[4] I
SS4END[5] I
SS4END[6] I
SS4END[7] I
SS4END[8] I
SS4END[9] I
UserCLK I
UserCLKo O

*D_NET *1 0.000695893
*CONN
*P FrameStrobe[0] I
*I *1282:A I *D sky130_fd_sc_hd__buf_1
*CAP
1 FrameStrobe[0] 0.000347947
2 *1282:A 0.000347947
*RES
1 FrameStrobe[0] *1282:A 20.425 
*END

*D_NET *2 0.000724489
*CONN
*P FrameStrobe[10] I
*I *1293:A I *D sky130_fd_sc_hd__clkbuf_1
*CAP
1 FrameStrobe[10] 0.000345238
2 *1293:A 0.000345238
3 *1293:A *1431:A 3.40128e-05
*RES