*SPEF "ieee 1481-1999"
*DESIGN "S_term_single2"
*DATE "11:11:11 Fri 11 11, 1111"
*VENDOR "OpenRCX"
*PROGRAM "Parallel Extraction"
*VERSION "1.0"
*DESIGN_FLOW "NAME_SCOPE LOCAL" "PIN_CAP NONE"
*DIVIDER /
*DELIMITER :
*BUS_DELIMITER []
*T_UNIT 1 NS
*C_UNIT 1 PF
*R_UNIT 1 OHM
*L_UNIT 1 HENRY

*NAME_MAP
*1 FrameStrobe[0]
*2 FrameStrobe[10]
*3 FrameStrobe[11]
*4 FrameStrobe[12]
*5 FrameStrobe[13]
*6 FrameStrobe[14]
*7 FrameStrobe[15]
*8 FrameStrobe[16]
*9 FrameStrobe[17]
*10 FrameStrobe[18]
*11 FrameStrobe[19]
*12 FrameStrobe[1]
*13 FrameStrobe[2]
*14 FrameStrobe[3]
*15 FrameStrobe[4]
*16 FrameStrobe[5]
*17 FrameStrobe[6]
*18 FrameStrobe[7]
*19 FrameStrobe[8]
*20 FrameStrobe[9]
*21 FrameStrobe_O[0]
*22 FrameStrobe_O[10]
*23 FrameStrobe_O[11]
*24 FrameStrobe_O[12]
*25 FrameStrobe_O[13]
*26 FrameStrobe_O[14]
*27 FrameStrobe_O[15]
*28 FrameStrobe_O[16]
*29 FrameStrobe_O[17]
*30 FrameStrobe_O[18]
*31 FrameStrobe_O[19]
*32 FrameStrobe_O[1]
*33 FrameStrobe_O[2]
*34 FrameStrobe_O[3]
*35 FrameStrobe_O[4]
*36 FrameStrobe_O[5]
*37 FrameStrobe_O[6]
*38 FrameStrobe_O[7]
*39 FrameStrobe_O[8]
*40 FrameStrobe_O[9]
*41 N1BEG[0]
*42 N1BEG[1]
*43 N1BEG[2]
*44 N1BEG[3]
*45 N2BEG[0]
*46 N2BEG[1]
*47 N2BEG[2]
*48 N2BEG[3]
*49 N2BEG[4]
*50 N2BEG[5]
*51 N2BEG[6]
*52 N2BEG[7]
*53 N2BEGb[0]
*54 N2BEGb[1]
*55 N2BEGb[2]
*56 N2BEGb[3]
*57 N2BEGb[4]
*58 N2BEGb[5]
*59 N2BEGb[6]
*60 N2BEGb[7]
*61 N4BEG[0]
*62 N4BEG[10]
*63 N4BEG[11]
*64 N4BEG[12]
*65 N4BEG[13]
*66 N4BEG[14]
*67 N4BEG[15]
*68 N4BEG[1]
*69 N4BEG[2]
*70 N4BEG[3]
*71 N4BEG[4]
*72 N4BEG[5]
*73 N4BEG[6]
*74 N4BEG[7]
*75 N4BEG[8]
*76 N4BEG[9]
*77 NN4BEG[0]
*78 NN4BEG[10]
*79 NN4BEG[11]
*80 NN4BEG[12]
*81 NN4BEG[13]
*82 NN4BEG[14]
*83 NN4BEG[15]
*84 NN4BEG[1]
*85 NN4BEG[2]
*86 NN4BEG[3]
*87 NN4BEG[4]
*88 NN4BEG[5]
*89 NN4BEG[6]
*90 NN4BEG[7]
*91 NN4BEG[8]
*92 NN4BEG[9]
*93 S1END[0]
*94 S1END[1]
*95 S1END[2]
*96 S1END[3]
*97 S2END[0]
*98 S2END[1]
*99 S2END[2]
*100 S2END[3]
*101 S2END[4]
*102 S2END[5]
*103 S2END[6]
*104 S2END[7]
*105 S2MID[0]
*106 S2MID[1]
*107 S2MID[2]
*108 S2MID[3]
*109 S2MID[4]
*110 S2MID[5]
*111 S2MID[6]
*112 S2MID[7]
*113 S4END[0]
*114 S4END[10]
*115 S4END[11]
*116 S4END[12]
*117 S4END[13]
*118 S4END[14]
*119 S4END[15]
*120 S4END[1]
*121 S4END[2]
*122 S4END[3]
*123 S4END[4]
*124 S4END[5]
*125 S4END[6]
*126 S4END[7]
*127 S4END[8]
*128 S4END[9]
*129 SS4END[0]
*130 SS4END[10]
*131 SS4END[11]
*132 SS4END[12]
*133 SS4END[13]
*134 SS4END[14]
*135 SS4END[15]
*136 SS4END[1]
*137 SS4END[2]
*138 SS4END[3]
*139 SS4END[4]
*140 SS4END[5]
*141 SS4END[6]
*142 SS4END[7]
*143 SS4END[8]
*144 SS4END[9]
*145 UserCLK
*146 UserCLKo
*149 FrameStrobe_O_i\[0\]
*150 FrameStrobe_O_i\[10\]
*151 FrameStrobe_O_i\[11\]
*152 FrameStrobe_O_i\[12\]
*153 FrameStrobe_O_i\[13\]
*154 FrameStrobe_O_i\[14\]
*155 FrameStrobe_O_i\[15\]
*156 FrameStrobe_O_i\[16\]
*157 FrameStrobe_O_i\[17\]
*158 FrameStrobe_O_i\[18\]
*159 FrameStrobe_O_i\[19\]
*160 FrameStrobe_O_i\[1\]
*161 FrameStrobe_O_i\[2\]
*162 FrameStrobe_O_i\[3\]
*163 FrameStrobe_O_i\[4\]
*164 FrameStrobe_O_i\[5\]
*165 FrameStrobe_O_i\[6\]
*166 FrameStrobe_O_i\[7\]
*167 FrameStrobe_O_i\[8\]
*168 FrameStrobe_O_i\[9\]
*169 net1
*170 net10
*171 net100
*172 net101
*173 net102
*174 net103
*175 net104
*176 net105
*177 net106
*178 net107
*179 net108
*180 net109
*181 net11
*182 net110
*183 net111
*184 net112
*185 net113
*186 net114
*187 net115
*188 net116
*189 net117
*190 net118
*191 net119
*192 net12
*193 net120
*194 net121
*195 net122
*196 net123
*197 net124
*198 net125
*199 net126
*200 net127
*201 net128
*202 net129
*203 net13
*204 net130
*205 net131
*206 net132
*207 net133
*208 net134
*209 net135
*210 net136
*211 net137
*212 net138
*213 net139
*214 net14
*215 net140
*216 net141
*217 net142
*218 net143
*219 net144
*220 net145
*221 net146
*222 net15
*223 net16
*224 net17
*225 net18
*226 net19
*227 net2
*228 net20
*229 net21
*230 net22
*231 net23
*232 net24
*233 net25
*234 net26
*235 net27
*236 net28
*237 net29
*238 net3
*239 net30
*240 net31
*241 net32
*242 net33
*243 net34
*244 net35
*245 net36
*246 net37
*247 net38
*248 net39
*249 net4
*250 net40
*251 net41
*252 net42
*253 net43
*254 net44
*255 net45
*256 net46
*257 net47
*258 net48
*259 net49
*260 net5
*261 net50
*262 net51
*263 net52
*264 net53
*265 net54
*266 net55
*267 net56
*268 net57
*269 net58
*270 net59
*271 net6
*272 net60
*273 net61
*274 net62
*275 net63
*276 net64
*277 net65
*278 net66
*279 net67
*280 net68
*281 net69
*282 net7
*283 net70
*284 net71
*285 net72
*286 net73
*287 net74
*288 net75
*289 net76
*290 net77
*291 net78
*292 net79
*293 net8
*294 net80
*295 net81
*296 net82
*297 net83
*298 net84
*299 net85
*300 net86
*301 net87
*302 net88
*303 net89
*304 net9
*305 net90
*306 net91
*307 net92
*308 net93
*309 net94
*310 net95
*311 net96
*312 net97
*313 net98
*314 net99
*315 FILLER_0_0_108
*316 FILLER_0_0_113
*317 FILLER_0_0_12
*318 FILLER_0_0_125
*319 FILLER_0_0_132
*320 FILLER_0_0_141
*321 FILLER_0_0_156
*322 FILLER_0_0_169
*323 FILLER_0_0_180
*324 FILLER_0_0_192
*325 FILLER_0_0_197
*326 FILLER_0_0_204
*327 FILLER_0_0_216
*328 FILLER_0_0_228
*329 FILLER_0_0_24
*330 FILLER_0_0_246
*331 FILLER_0_0_253
*332 FILLER_0_0_265
*333 FILLER_0_0_276
*334 FILLER_0_0_281
*335 FILLER_0_0_29
*336 FILLER_0_0_293
*337 FILLER_0_0_3
*338 FILLER_0_0_300
*339 FILLER_0_0_309
*340 FILLER_0_0_324
*341 FILLER_0_0_337
*342 FILLER_0_0_348
*343 FILLER_0_0_36
*344 FILLER_0_0_360
*345 FILLER_0_0_365
*346 FILLER_0_0_372
*347 FILLER_0_0_384
*348 FILLER_0_0_396
*349 FILLER_0_0_408
*350 FILLER_0_0_416
*351 FILLER_0_0_421
*352 FILLER_0_0_433
*353 FILLER_0_0_444
*354 FILLER_0_0_449
*355 FILLER_0_0_461
*356 FILLER_0_0_468
*357 FILLER_0_0_477
*358 FILLER_0_0_48
*359 FILLER_0_0_492
*360 FILLER_0_0_60
*361 FILLER_0_0_72
*362 FILLER_0_0_80
*363 FILLER_0_0_85
*364 FILLER_0_0_97
*365 FILLER_0_10_109
*366 FILLER_0_10_121
*367 FILLER_0_10_133
*368 FILLER_0_10_139
*369 FILLER_0_10_141
*370 FILLER_0_10_15
*371 FILLER_0_10_153
*372 FILLER_0_10_165
*373 FILLER_0_10_177
*374 FILLER_0_10_189
*375 FILLER_0_10_195
*376 FILLER_0_10_197
*377 FILLER_0_10_209
*378 FILLER_0_10_221
*379 FILLER_0_10_233
*380 FILLER_0_10_245
*381 FILLER_0_10_251
*382 FILLER_0_10_253
*383 FILLER_0_10_265
*384 FILLER_0_10_27
*385 FILLER_0_10_277
*386 FILLER_0_10_289
*387 FILLER_0_10_29
*388 FILLER_0_10_3
*389 FILLER_0_10_301
*390 FILLER_0_10_307
*391 FILLER_0_10_309
*392 FILLER_0_10_321
*393 FILLER_0_10_333
*394 FILLER_0_10_345
*395 FILLER_0_10_357
*396 FILLER_0_10_363
*397 FILLER_0_10_365
*398 FILLER_0_10_377
*399 FILLER_0_10_389
*400 FILLER_0_10_401
*401 FILLER_0_10_41
*402 FILLER_0_10_413
*403 FILLER_0_10_419
*404 FILLER_0_10_421
*405 FILLER_0_10_433
*406 FILLER_0_10_445
*407 FILLER_0_10_457
*408 FILLER_0_10_469
*409 FILLER_0_10_475
*410 FILLER_0_10_477
*411 FILLER_0_10_481
*412 FILLER_0_10_53
*413 FILLER_0_10_65
*414 FILLER_0_10_77
*415 FILLER_0_10_83
*416 FILLER_0_10_85
*417 FILLER_0_10_97
*418 FILLER_0_11_105
*419 FILLER_0_11_111
*420 FILLER_0_11_113
*421 FILLER_0_11_125
*422 FILLER_0_11_137
*423 FILLER_0_11_149
*424 FILLER_0_11_161
*425 FILLER_0_11_167
*426 FILLER_0_11_169
*427 FILLER_0_11_181
*428 FILLER_0_11_193
*429 FILLER_0_11_204
*430 FILLER_0_11_208
*431 FILLER_0_11_21
*432 FILLER_0_11_215
*433 FILLER_0_11_223
*434 FILLER_0_11_225
*435 FILLER_0_11_236
*436 FILLER_0_11_248
*437 FILLER_0_11_252
*438 FILLER_0_11_259
*439 FILLER_0_11_271
*440 FILLER_0_11_279
*441 FILLER_0_11_281
*442 FILLER_0_11_293
*443 FILLER_0_11_305
*444 FILLER_0_11_317
*445 FILLER_0_11_329
*446 FILLER_0_11_33
*447 FILLER_0_11_335
*448 FILLER_0_11_337
*449 FILLER_0_11_349
*450 FILLER_0_11_361
*451 FILLER_0_11_373
*452 FILLER_0_11_385
*453 FILLER_0_11_391
*454 FILLER_0_11_393
*455 FILLER_0_11_405
*456 FILLER_0_11_417
*457 FILLER_0_11_429
*458 FILLER_0_11_441
*459 FILLER_0_11_447
*460 FILLER_0_11_449
*461 FILLER_0_11_45
*462 FILLER_0_11_461
*463 FILLER_0_11_469
*464 FILLER_0_11_53
*465 FILLER_0_11_57
*466 FILLER_0_11_69
*467 FILLER_0_11_81
*468 FILLER_0_11_9
*469 FILLER_0_11_93
*470 FILLER_0_12_100
*471 FILLER_0_12_112
*472 FILLER_0_12_121
*473 FILLER_0_12_128
*474 FILLER_0_12_141
*475 FILLER_0_12_153
*476 FILLER_0_12_160
*477 FILLER_0_12_17
*478 FILLER_0_12_176
*479 FILLER_0_12_180
*480 FILLER_0_12_197
*481 FILLER_0_12_25
*482 FILLER_0_12_253
*483 FILLER_0_12_260
*484 FILLER_0_12_288
*485 FILLER_0_12_29
*486 FILLER_0_12_292
*487 FILLER_0_12_296
*488 FILLER_0_12_3
*489 FILLER_0_12_300
*490 FILLER_0_12_304
*491 FILLER_0_12_309
*492 FILLER_0_12_313
*493 FILLER_0_12_325
*494 FILLER_0_12_337
*495 FILLER_0_12_349
*496 FILLER_0_12_361
*497 FILLER_0_12_365
*498 FILLER_0_12_377
*499 FILLER_0_12_389
*500 FILLER_0_12_401
*501 FILLER_0_12_41
*502 FILLER_0_12_413
*503 FILLER_0_12_419
*504 FILLER_0_12_421
*505 FILLER_0_12_437
*506 FILLER_0_12_449
*507 FILLER_0_12_463
*508 FILLER_0_12_471
*509 FILLER_0_12_475
*510 FILLER_0_12_489
*511 FILLER_0_12_493
*512 FILLER_0_12_53
*513 FILLER_0_12_69
*514 FILLER_0_12_81
*515 FILLER_0_12_85
*516 FILLER_0_12_93
*517 FILLER_0_13_113
*518 FILLER_0_13_124
*519 FILLER_0_13_141
*520 FILLER_0_13_156
*521 FILLER_0_13_169
*522 FILLER_0_13_203
*523 FILLER_0_13_213
*524 FILLER_0_13_256
*525 FILLER_0_13_260
*526 FILLER_0_13_264
*527 FILLER_0_13_268
*528 FILLER_0_13_272
*529 FILLER_0_13_276
*530 FILLER_0_13_284
*531 FILLER_0_13_288
*532 FILLER_0_13_29
*533 FILLER_0_13_292
*534 FILLER_0_13_296
*535 FILLER_0_13_3
*536 FILLER_0_13_300
*537 FILLER_0_13_304
*538 FILLER_0_13_312
*539 FILLER_0_13_316
*540 FILLER_0_13_320
*541 FILLER_0_13_324
*542 FILLER_0_13_328
*543 FILLER_0_13_332
*544 FILLER_0_13_340
*545 FILLER_0_13_344
*546 FILLER_0_13_348
*547 FILLER_0_13_352
*548 FILLER_0_13_356
*549 FILLER_0_13_360
*550 FILLER_0_13_368
*551 FILLER_0_13_372
*552 FILLER_0_13_376
*553 FILLER_0_13_380
*554 FILLER_0_13_384
*555 FILLER_0_13_388
*556 FILLER_0_13_396
*557 FILLER_0_13_400
*558 FILLER_0_13_404
*559 FILLER_0_13_408
*560 FILLER_0_13_412
*561 FILLER_0_13_416
*562 FILLER_0_13_443
*563 FILLER_0_13_447
*564 FILLER_0_13_473
*565 FILLER_0_13_489
*566 FILLER_0_13_493
*567 FILLER_0_13_57
*568 FILLER_0_13_89
*569 FILLER_0_1_105
*570 FILLER_0_1_111
*571 FILLER_0_1_113
*572 FILLER_0_1_125
*573 FILLER_0_1_137
*574 FILLER_0_1_149
*575 FILLER_0_1_15
*576 FILLER_0_1_161
*577 FILLER_0_1_167
*578 FILLER_0_1_169
*579 FILLER_0_1_181
*580 FILLER_0_1_193
*581 FILLER_0_1_205
*582 FILLER_0_1_209
*583 FILLER_0_1_221
*584 FILLER_0_1_225
*585 FILLER_0_1_235
*586 FILLER_0_1_252
*587 FILLER_0_1_260
*588 FILLER_0_1_27
*589 FILLER_0_1_272
*590 FILLER_0_1_284
*591 FILLER_0_1_296
*592 FILLER_0_1_3
*593 FILLER_0_1_307
*594 FILLER_0_1_319
*595 FILLER_0_1_330
*596 FILLER_0_1_337
*597 FILLER_0_1_349
*598 FILLER_0_1_355
*599 FILLER_0_1_367
*600 FILLER_0_1_373
*601 FILLER_0_1_377
*602 FILLER_0_1_389
*603 FILLER_0_1_39
*604 FILLER_0_1_393
*605 FILLER_0_1_397
*606 FILLER_0_1_401
*607 FILLER_0_1_413
*608 FILLER_0_1_425
*609 FILLER_0_1_437
*610 FILLER_0_1_445
*611 FILLER_0_1_452
*612 FILLER_0_1_464
*613 FILLER_0_1_470
*614 FILLER_0_1_475
*615 FILLER_0_1_483
*616 FILLER_0_1_487
*617 FILLER_0_1_493
*618 FILLER_0_1_51
*619 FILLER_0_1_55
*620 FILLER_0_1_57
*621 FILLER_0_1_69
*622 FILLER_0_1_81
*623 FILLER_0_1_93
*624 FILLER_0_2_109
*625 FILLER_0_2_121
*626 FILLER_0_2_133
*627 FILLER_0_2_139
*628 FILLER_0_2_141
*629 FILLER_0_2_15
*630 FILLER_0_2_153
*631 FILLER_0_2_165
*632 FILLER_0_2_177
*633 FILLER_0_2_189
*634 FILLER_0_2_195
*635 FILLER_0_2_197
*636 FILLER_0_2_209
*637 FILLER_0_2_215
*638 FILLER_0_2_220
*639 FILLER_0_2_232
*640 FILLER_0_2_238
*641 FILLER_0_2_253
*642 FILLER_0_2_267
*643 FILLER_0_2_27
*644 FILLER_0_2_279
*645 FILLER_0_2_29
*646 FILLER_0_2_290
*647 FILLER_0_2_3
*648 FILLER_0_2_302
*649 FILLER_0_2_309
*650 FILLER_0_2_314
*651 FILLER_0_2_326
*652 FILLER_0_2_334
*653 FILLER_0_2_338
*654 FILLER_0_2_350
*655 FILLER_0_2_358
*656 FILLER_0_2_362
*657 FILLER_0_2_365
*658 FILLER_0_2_377
*659 FILLER_0_2_383
*660 FILLER_0_2_387
*661 FILLER_0_2_399
*662 FILLER_0_2_407
*663 FILLER_0_2_41
*664 FILLER_0_2_411
*665 FILLER_0_2_419
*666 FILLER_0_2_421
*667 FILLER_0_2_433
*668 FILLER_0_2_445
*669 FILLER_0_2_453
*670 FILLER_0_2_459
*671 FILLER_0_2_471
*672 FILLER_0_2_475
*673 FILLER_0_2_480
*674 FILLER_0_2_488
*675 FILLER_0_2_53
*676 FILLER_0_2_65
*677 FILLER_0_2_77
*678 FILLER_0_2_83
*679 FILLER_0_2_85
*680 FILLER_0_2_97
*681 FILLER_0_3_105
*682 FILLER_0_3_111
*683 FILLER_0_3_113
*684 FILLER_0_3_125
*685 FILLER_0_3_137
*686 FILLER_0_3_149
*687 FILLER_0_3_15
*688 FILLER_0_3_161
*689 FILLER_0_3_167
*690 FILLER_0_3_169
*691 FILLER_0_3_181
*692 FILLER_0_3_193
*693 FILLER_0_3_205
*694 FILLER_0_3_217
*695 FILLER_0_3_223
*696 FILLER_0_3_225
*697 FILLER_0_3_237
*698 FILLER_0_3_249
*699 FILLER_0_3_261
*700 FILLER_0_3_27
*701 FILLER_0_3_273
*702 FILLER_0_3_279
*703 FILLER_0_3_281
*704 FILLER_0_3_293
*705 FILLER_0_3_3
*706 FILLER_0_3_305
*707 FILLER_0_3_317
*708 FILLER_0_3_329
*709 FILLER_0_3_335
*710 FILLER_0_3_337
*711 FILLER_0_3_349
*712 FILLER_0_3_361
*713 FILLER_0_3_373
*714 FILLER_0_3_385
*715 FILLER_0_3_39
*716 FILLER_0_3_391
*717 FILLER_0_3_393
*718 FILLER_0_3_405
*719 FILLER_0_3_417
*720 FILLER_0_3_429
*721 FILLER_0_3_441
*722 FILLER_0_3_447
*723 FILLER_0_3_449
*724 FILLER_0_3_461
*725 FILLER_0_3_473
*726 FILLER_0_3_485
*727 FILLER_0_3_493
*728 FILLER_0_3_51
*729 FILLER_0_3_55
*730 FILLER_0_3_57
*731 FILLER_0_3_69
*732 FILLER_0_3_81
*733 FILLER_0_3_93
*734 FILLER_0_4_109
*735 FILLER_0_4_121
*736 FILLER_0_4_133
*737 FILLER_0_4_139
*738 FILLER_0_4_141
*739 FILLER_0_4_15
*740 FILLER_0_4_153
*741 FILLER_0_4_165
*742 FILLER_0_4_177
*743 FILLER_0_4_189
*744 FILLER_0_4_195
*745 FILLER_0_4_197
*746 FILLER_0_4_209
*747 FILLER_0_4_221
*748 FILLER_0_4_233
*749 FILLER_0_4_245
*750 FILLER_0_4_251
*751 FILLER_0_4_253
*752 FILLER_0_4_265
*753 FILLER_0_4_27
*754 FILLER_0_4_277
*755 FILLER_0_4_289
*756 FILLER_0_4_29
*757 FILLER_0_4_3
*758 FILLER_0_4_301
*759 FILLER_0_4_307
*760 FILLER_0_4_309
*761 FILLER_0_4_321
*762 FILLER_0_4_333
*763 FILLER_0_4_345
*764 FILLER_0_4_357
*765 FILLER_0_4_363
*766 FILLER_0_4_365
*767 FILLER_0_4_377
*768 FILLER_0_4_389
*769 FILLER_0_4_401
*770 FILLER_0_4_41
*771 FILLER_0_4_413
*772 FILLER_0_4_419
*773 FILLER_0_4_421
*774 FILLER_0_4_433
*775 FILLER_0_4_445
*776 FILLER_0_4_457
*777 FILLER_0_4_469
*778 FILLER_0_4_475
*779 FILLER_0_4_477
*780 FILLER_0_4_489
*781 FILLER_0_4_493
*782 FILLER_0_4_53
*783 FILLER_0_4_65
*784 FILLER_0_4_77
*785 FILLER_0_4_83
*786 FILLER_0_4_85
*787 FILLER_0_4_97
*788 FILLER_0_5_105
*789 FILLER_0_5_111
*790 FILLER_0_5_113
*791 FILLER_0_5_125
*792 FILLER_0_5_137
*793 FILLER_0_5_149
*794 FILLER_0_5_15
*795 FILLER_0_5_161
*796 FILLER_0_5_167
*797 FILLER_0_5_169
*798 FILLER_0_5_181
*799 FILLER_0_5_193
*800 FILLER_0_5_205
*801 FILLER_0_5_217
*802 FILLER_0_5_223
*803 FILLER_0_5_225
*804 FILLER_0_5_237
*805 FILLER_0_5_249
*806 FILLER_0_5_261
*807 FILLER_0_5_27
*808 FILLER_0_5_273
*809 FILLER_0_5_279
*810 FILLER_0_5_281
*811 FILLER_0_5_293
*812 FILLER_0_5_3
*813 FILLER_0_5_305
*814 FILLER_0_5_317
*815 FILLER_0_5_329
*816 FILLER_0_5_335
*817 FILLER_0_5_337
*818 FILLER_0_5_349
*819 FILLER_0_5_361
*820 FILLER_0_5_373
*821 FILLER_0_5_385
*822 FILLER_0_5_39
*823 FILLER_0_5_391
*824 FILLER_0_5_393
*825 FILLER_0_5_405
*826 FILLER_0_5_417
*827 FILLER_0_5_429
*828 FILLER_0_5_441
*829 FILLER_0_5_447
*830 FILLER_0_5_449
*831 FILLER_0_5_461
*832 FILLER_0_5_473
*833 FILLER_0_5_485
*834 FILLER_0_5_493
*835 FILLER_0_5_51
*836 FILLER_0_5_55
*837 FILLER_0_5_57
*838 FILLER_0_5_69
*839 FILLER_0_5_81
*840 FILLER_0_5_93
*841 FILLER_0_6_109
*842 FILLER_0_6_121
*843 FILLER_0_6_133
*844 FILLER_0_6_139
*845 FILLER_0_6_141
*846 FILLER_0_6_15
*847 FILLER_0_6_153
*848 FILLER_0_6_165
*849 FILLER_0_6_177
*850 FILLER_0_6_189
*851 FILLER_0_6_195
*852 FILLER_0_6_197
*853 FILLER_0_6_209
*854 FILLER_0_6_221
*855 FILLER_0_6_233
*856 FILLER_0_6_245
*857 FILLER_0_6_251
*858 FILLER_0_6_253
*859 FILLER_0_6_265
*860 FILLER_0_6_27
*861 FILLER_0_6_277
*862 FILLER_0_6_289
*863 FILLER_0_6_29
*864 FILLER_0_6_3
*865 FILLER_0_6_301
*866 FILLER_0_6_307
*867 FILLER_0_6_309
*868 FILLER_0_6_321
*869 FILLER_0_6_333
*870 FILLER_0_6_345
*871 FILLER_0_6_357
*872 FILLER_0_6_363
*873 FILLER_0_6_365
*874 FILLER_0_6_377
*875 FILLER_0_6_389
*876 FILLER_0_6_401
*877 FILLER_0_6_41
*878 FILLER_0_6_413
*879 FILLER_0_6_419
*880 FILLER_0_6_421
*881 FILLER_0_6_433
*882 FILLER_0_6_445
*883 FILLER_0_6_457
*884 FILLER_0_6_469
*885 FILLER_0_6_475
*886 FILLER_0_6_477
*887 FILLER_0_6_489
*888 FILLER_0_6_493
*889 FILLER_0_6_53
*890 FILLER_0_6_65
*891 FILLER_0_6_77
*892 FILLER_0_6_83
*893 FILLER_0_6_85
*894 FILLER_0_6_97
*895 FILLER_0_7_105
*896 FILLER_0_7_111
*897 FILLER_0_7_113
*898 FILLER_0_7_125
*899 FILLER_0_7_137
*900 FILLER_0_7_149
*901 FILLER_0_7_15
*902 FILLER_0_7_161
*903 FILLER_0_7_167
*904 FILLER_0_7_169
*905 FILLER_0_7_181
*906 FILLER_0_7_193
*907 FILLER_0_7_205
*908 FILLER_0_7_217
*909 FILLER_0_7_223
*910 FILLER_0_7_225
*911 FILLER_0_7_237
*912 FILLER_0_7_249
*913 FILLER_0_7_261
*914 FILLER_0_7_27
*915 FILLER_0_7_273
*916 FILLER_0_7_279
*917 FILLER_0_7_281
*918 FILLER_0_7_293
*919 FILLER_0_7_3
*920 FILLER_0_7_305
*921 FILLER_0_7_317
*922 FILLER_0_7_329
*923 FILLER_0_7_335
*924 FILLER_0_7_337
*925 FILLER_0_7_349
*926 FILLER_0_7_361
*927 FILLER_0_7_373
*928 FILLER_0_7_385
*929 FILLER_0_7_39
*930 FILLER_0_7_391
*931 FILLER_0_7_393
*932 FILLER_0_7_405
*933 FILLER_0_7_417
*934 FILLER_0_7_429
*935 FILLER_0_7_441
*936 FILLER_0_7_447
*937 FILLER_0_7_449
*938 FILLER_0_7_461
*939 FILLER_0_7_473
*940 FILLER_0_7_485
*941 FILLER_0_7_493
*942 FILLER_0_7_51
*943 FILLER_0_7_55
*944 FILLER_0_7_57
*945 FILLER_0_7_69
*946 FILLER_0_7_81
*947 FILLER_0_7_93
*948 FILLER_0_8_109
*949 FILLER_0_8_121
*950 FILLER_0_8_133
*951 FILLER_0_8_139
*952 FILLER_0_8_141
*953 FILLER_0_8_15
*954 FILLER_0_8_153
*955 FILLER_0_8_165
*956 FILLER_0_8_177
*957 FILLER_0_8_189
*958 FILLER_0_8_195
*959 FILLER_0_8_197
*960 FILLER_0_8_209
*961 FILLER_0_8_221
*962 FILLER_0_8_233
*963 FILLER_0_8_245
*964 FILLER_0_8_251
*965 FILLER_0_8_253
*966 FILLER_0_8_265
*967 FILLER_0_8_27
*968 FILLER_0_8_277
*969 FILLER_0_8_289
*970 FILLER_0_8_29
*971 FILLER_0_8_3
*972 FILLER_0_8_301
*973 FILLER_0_8_307
*974 FILLER_0_8_309
*975 FILLER_0_8_321
*976 FILLER_0_8_333
*977 FILLER_0_8_345
*978 FILLER_0_8_357
*979 FILLER_0_8_363
*980 FILLER_0_8_365
*981 FILLER_0_8_377
*982 FILLER_0_8_389
*983 FILLER_0_8_401
*984 FILLER_0_8_41
*985 FILLER_0_8_413
*986 FILLER_0_8_419
*987 FILLER_0_8_421
*988 FILLER_0_8_433
*989 FILLER_0_8_445
*990 FILLER_0_8_457
*991 FILLER_0_8_469
*992 FILLER_0_8_475
*993 FILLER_0_8_477
*994 FILLER_0_8_489
*995 FILLER_0_8_493
*996 FILLER_0_8_53
*997 FILLER_0_8_65
*998 FILLER_0_8_77
*999 FILLER_0_8_83
*1000 FILLER_0_8_85
*1001 FILLER_0_8_97
*1002 FILLER_0_9_105
*1003 FILLER_0_9_111
*1004 FILLER_0_9_113
*1005 FILLER_0_9_125
*1006 FILLER_0_9_137
*1007 FILLER_0_9_149
*1008 FILLER_0_9_15
*1009 FILLER_0_9_161
*1010 FILLER_0_9_167
*1011 FILLER_0_9_169
*1012 FILLER_0_9_181
*1013 FILLER_0_9_193
*1014 FILLER_0_9_205
*1015 FILLER_0_9_217
*1016 FILLER_0_9_223
*1017 FILLER_0_9_225
*1018 FILLER_0_9_237
*1019 FILLER_0_9_249
*1020 FILLER_0_9_261
*1021 FILLER_0_9_27
*1022 FILLER_0_9_273
*1023 FILLER_0_9_279
*1024 FILLER_0_9_281
*1025 FILLER_0_9_293
*1026 FILLER_0_9_3
*1027 FILLER_0_9_305
*1028 FILLER_0_9_317
*1029 FILLER_0_9_329
*1030 FILLER_0_9_335
*1031 FILLER_0_9_337
*1032 FILLER_0_9_349
*1033 FILLER_0_9_361
*1034 FILLER_0_9_373
*1035 FILLER_0_9_385
*1036 FILLER_0_9_39
*1037 FILLER_0_9_391
*1038 FILLER_0_9_393
*1039 FILLER_0_9_405
*1040 FILLER_0_9_417
*1041 FILLER_0_9_429
*1042 FILLER_0_9_441
*1043 FILLER_0_9_447
*1044 FILLER_0_9_449
*1045 FILLER_0_9_461
*1046 FILLER_0_9_473
*1047 FILLER_0_9_485
*1048 FILLER_0_9_493
*1049 FILLER_0_9_51
*1050 FILLER_0_9_55
*1051 FILLER_0_9_57
*1052 FILLER_0_9_69
*1053 FILLER_0_9_81
*1054 FILLER_0_9_93
*1055 Inst_S_term_single2_switch_matrix/_00_
*1056 Inst_S_term_single2_switch_matrix/_01_
*1057 Inst_S_term_single2_switch_matrix/_02_
*1058 Inst_S_term_single2_switch_matrix/_03_
*1059 Inst_S_term_single2_switch_matrix/_04_
*1060 Inst_S_term_single2_switch_matrix/_05_
*1061 Inst_S_term_single2_switch_matrix/_06_
*1062 Inst_S_term_single2_switch_matrix/_07_
*1063 Inst_S_term_single2_switch_matrix/_08_
*1064 Inst_S_term_single2_switch_matrix/_09_
*1065 Inst_S_term_single2_switch_matrix/_10_
*1066 Inst_S_term_single2_switch_matrix/_11_
*1067 Inst_S_term_single2_switch_matrix/_12_
*1068 Inst_S_term_single2_switch_matrix/_13_
*1069 Inst_S_term_single2_switch_matrix/_14_
*1070 Inst_S_term_single2_switch_matrix/_15_
*1071 Inst_S_term_single2_switch_matrix/_16_
*1072 Inst_S_term_single2_switch_matrix/_17_
*1073 Inst_S_term_single2_switch_matrix/_18_
*1074 Inst_S_term_single2_switch_matrix/_19_
*1075 Inst_S_term_single2_switch_matrix/_20_
*1076 Inst_S_term_single2_switch_matrix/_21_
*1077 Inst_S_term_single2_switch_matrix/_22_
*1078 Inst_S_term_single2_switch_matrix/_23_
*1079 Inst_S_term_single2_switch_matrix/_24_
*1080 Inst_S_term_single2_switch_matrix/_25_
*1081 Inst_S_term_single2_switch_matrix/_26_
*1082 Inst_S_term_single2_switch_matrix/_27_
*1083 Inst_S_term_single2_switch_matrix/_28_
*1084 Inst_S_term_single2_switch_matrix/_29_
*1085 Inst_S_term_single2_switch_matrix/_30_
*1086 Inst_S_term_single2_switch_matrix/_31_
*1087 Inst_S_term_single2_switch_matrix/_32_
*1088 Inst_S_term_single2_switch_matrix/_33_
*1089 Inst_S_term_single2_switch_matrix/_34_
*1090 Inst_S_term_single2_switch_matrix/_35_
*1091 Inst_S_term_single2_switch_matrix/_36_
*1092 Inst_S_term_single2_switch_matrix/_37_
*1093 Inst_S_term_single2_switch_matrix/_38_
*1094 Inst_S_term_single2_switch_matrix/_39_
*1095 Inst_S_term_single2_switch_matrix/_40_
*1096 Inst_S_term_single2_switch_matrix/_41_
*1097 Inst_S_term_single2_switch_matrix/_42_
*1098 Inst_S_term_single2_switch_matrix/_43_
*1099 Inst_S_term_single2_switch_matrix/_44_
*1100 Inst_S_term_single2_switch_matrix/_45_
*1101 Inst_S_term_single2_switch_matrix/_46_
*1102 Inst_S_term_single2_switch_matrix/_47_
*1103 Inst_S_term_single2_switch_matrix/_48_
*1104 Inst_S_term_single2_switch_matrix/_49_
*1105 Inst_S_term_single2_switch_matrix/_50_
*1106 Inst_S_term_single2_switch_matrix/_51_
*1107 PHY_0
*1108 PHY_1
*1109 PHY_10
*1110 PHY_11
*1111 PHY_12
*1112 PHY_13
*1113 PHY_14
*1114 PHY_15
*1115 PHY_16
*1116 PHY_17
*1117 PHY_18
*1118 PHY_19
*1119 PHY_2
*1120 PHY_20
*1121 PHY_21
*1122 PHY_22
*1123 PHY_23
*1124 PHY_24
*1125 PHY_25
*1126 PHY_26
*1127 PHY_27
*1128 PHY_3
*1129 PHY_4
*1130 PHY_5
*1131 PHY_6
*1132 PHY_7
*1133 PHY_8
*1134 PHY_9
*1135 TAP_100
*1136 TAP_101
*1137 TAP_102
*1138 TAP_103
*1139 TAP_104
*1140 TAP_105
*1141 TAP_106
*1142 TAP_107
*1143 TAP_108
*1144 TAP_109
*1145 TAP_110
*1146 TAP_111
*1147 TAP_112
*1148 TAP_113
*1149 TAP_114
*1150 TAP_115
*1151 TAP_116
*1152 TAP_117
*1153 TAP_118
*1154 TAP_119
*1155 TAP_120
*1156 TAP_121
*1157 TAP_122
*1158 TAP_123
*1159 TAP_124
*1160 TAP_125
*1161 TAP_126
*1162 TAP_127
*1163 TAP_128
*1164 TAP_129
*1165 TAP_130
*1166 TAP_131
*1167 TAP_132
*1168 TAP_133
*1169 TAP_134
*1170 TAP_135
*1171 TAP_136
*1172 TAP_137
*1173 TAP_138
*1174 TAP_139
*1175 TAP_140
*1176 TAP_141
*1177 TAP_142
*1178 TAP_143
*1179 TAP_144
*1180 TAP_145
*1181 TAP_146
*1182 TAP_147
*1183 TAP_148
*1184 TAP_149
*1185 TAP_150
*1186 TAP_151
*1187 TAP_152
*1188 TAP_153
*1189 TAP_154
*1190 TAP_155
*1191 TAP_156
*1192 TAP_157
*1193 TAP_158
*1194 TAP_159
*1195 TAP_160
*1196 TAP_161
*1197 TAP_162
*1198 TAP_163
*1199 TAP_28
*1200 TAP_29
*1201 TAP_30
*1202 TAP_31
*1203 TAP_32
*1204 TAP_33
*1205 TAP_34
*1206 TAP_35
*1207 TAP_36
*1208 TAP_37
*1209 TAP_38
*1210 TAP_39
*1211 TAP_40
*1212 TAP_41
*1213 TAP_42
*1214 TAP_43
*1215 TAP_44
*1216 TAP_45
*1217 TAP_46
*1218 TAP_47
*1219 TAP_48
*1220 TAP_49
*1221 TAP_50
*1222 TAP_51
*1223 TAP_52
*1224 TAP_53
*1225 TAP_54
*1226 TAP_55
*1227 TAP_56
*1228 TAP_57
*1229 TAP_58
*1230 TAP_59
*1231 TAP_60
*1232 TAP_61
*1233 TAP_62
*1234 TAP_63
*1235 TAP_64
*1236 TAP_65
*1237 TAP_66
*1238 TAP_67
*1239 TAP_68
*1240 TAP_69
*1241 TAP_70
*1242 TAP_71
*1243 TAP_72
*1244 TAP_73
*1245 TAP_74
*1246 TAP_75
*1247 TAP_76
*1248 TAP_77
*1249 TAP_78
*1250 TAP_79
*1251 TAP_80
*1252 TAP_81
*1253 TAP_82
*1254 TAP_83
*1255 TAP_84
*1256 TAP_85
*1257 TAP_86
*1258 TAP_87
*1259 TAP_88
*1260 TAP_89
*1261 TAP_90
*1262 TAP_91
*1263 TAP_92
*1264 TAP_93
*1265 TAP_94
*1266 TAP_95
*1267 TAP_96
*1268 TAP_97
*1269 TAP_98
*1270 TAP_99
*1271 input1
*1272 input10
*1273 input11
*1274 input12
*1275 input13
*1276 input14
*1277 input15
*1278 input16
*1279 input17
*1280 input18
*1281 input19
*1282 input2
*1283 input20
*1284 input21
*1285 input22
*1286 input23
*1287 input24
*1288 input25
*1289 input26
*1290 input27
*1291 input28
*1292 input29
*1293 input3
*1294 input30
*1295 input31
*1296 input32
*1297 input33
*1298 input34
*1299 input35
*1300 input36
*1301 input37
*1302 input38
*1303 input39
*1304 input4
*1305 input40
*1306 input41
*1307 input42
*1308 input43
*1309 input44
*1310 input45
*1311 input46
*1312 input47
*1313 input48
*1314 input49
*1315 input5
*1316 input50
*1317 input51
*1318 input52
*1319 input53
*1320 input54
*1321 input55
*1322 input56
*1323 input57
*1324 input58
*1325 input59
*1326 input6
*1327 input60
*1328 input61
*1329 input62
*1330 input63
*1331 input64
*1332 input65
*1333 input66
*1334 input67
*1335 input68
*1336 input69
*1337 input7
*1338 input70
*1339 input71
*1340 input72
*1341 input73
*1342 input8
*1343 input9
*1344 inst_clk_buf
*1345 output100
*1346 output101
*1347 output102
*1348 output103
*1349 output104
*1350 output105
*1351 output106
*1352 output107
*1353 output108
*1354 output109
*1355 output110
*1356 output111
*1357 output112
*1358 output113
*1359 output114
*1360 output115
*1361 output116
*1362 output117
*1363 output118
*1364 output119
*1365 output120
*1366 output121
*1367 output122
*1368 output123
*1369 output124
*1370 output125
*1371 output126
*1372 output127
*1373 output128
*1374 output129
*1375 output130
*1376 output131
*1377 output132
*1378 output133
*1379 output134
*1380 output135
*1381 output136
*1382 output137
*1383 output138
*1384 output139
*1385 output140
*1386 output141
*1387 output142
*1388 output143
*1389 output144
*1390 output145
*1391 output146
*1392 output74
*1393 output75
*1394 output76
*1395 output77
*1396 output78
*1397 output79
*1398 output80
*1399 output81
*1400 output82
*1401 output83
*1402 output84
*1403 output85
*1404 output86
*1405 output87
*1406 output88
*1407 output89
*1408 output90
*1409 output91
*1410 output92
*1411 output93
*1412 output94
*1413 output95
*1414 output96
*1415 output97
*1416 output98
*1417 output99
*1418 strobe_inbuf_0/_0_
*1419 strobe_inbuf_1/_0_
*1420 strobe_inbuf_10/_0_
*1421 strobe_inbuf_11/_0_
*1422 strobe_inbuf_12/_0_
*1423 strobe_inbuf_13/_0_
*1424 strobe_inbuf_14/_0_
*1425 strobe_inbuf_15/_0_
*1426 strobe_inbuf_16/_0_
*1427 strobe_inbuf_17/_0_
*1428 strobe_inbuf_18/_0_
*1429 strobe_inbuf_19/_0_
*1430 strobe_inbuf_2/_0_
*1431 strobe_inbuf_3/_0_
*1432 strobe_inbuf_4/_0_
*1433 strobe_inbuf_5/_0_
*1434 strobe_inbuf_6/_0_
*1435 strobe_inbuf_7/_0_
*1436 strobe_inbuf_8/_0_
*1437 strobe_inbuf_9/_0_
*1438 strobe_outbuf_0/_0_
*1439 strobe_outbuf_1/_0_
*1440 strobe_outbuf_10/_0_
*1441 strobe_outbuf_11/_0_
*1442 strobe_outbuf_12/_0_
*1443 strobe_outbuf_13/_0_
*1444 strobe_outbuf_14/_0_
*1445 strobe_outbuf_15/_0_
*1446 strobe_outbuf_16/_0_
*1447 strobe_outbuf_17/_0_
*1448 strobe_outbuf_18/_0_
*1449 strobe_outbuf_19/_0_
*1450 strobe_outbuf_2/_0_
*1451 strobe_outbuf_3/_0_
*1452 strobe_outbuf_4/_0_
*1453 strobe_outbuf_5/_0_
*1454 strobe_outbuf_6/_0_
*1455 strobe_outbuf_7/_0_
*1456 strobe_outbuf_8/_0_
*1457 strobe_outbuf_9/_0_

*PORTS
FrameStrobe[0] I
FrameStrobe[10] I
FrameStrobe[11] I
FrameStrobe[12] I
FrameStrobe[13] I
FrameStrobe[14] I
FrameStrobe[15] I
FrameStrobe[16] I
FrameStrobe[17] I
FrameStrobe[18] I
FrameStrobe[19] I
FrameStrobe[1] I
FrameStrobe[2] I
FrameStrobe[3] I
FrameStrobe[4] I
FrameStrobe[5] I
FrameStrobe[6] I
FrameStrobe[7] I
FrameStrobe[8] I
FrameStrobe[9] I
FrameStrobe_O[0] O
FrameStrobe_O[10] O
FrameStrobe_O[11] O
FrameStrobe_O[12] O
FrameStrobe_O[13] O
FrameStrobe_O[14] O
FrameStrobe_O[15] O
FrameStrobe_O[16] O
FrameStrobe_O[17] O
FrameStrobe_O[18] O
FrameStrobe_O[19] O
FrameStrobe_O[1] O
FrameStrobe_O[2] O
FrameStrobe_O[3] O
FrameStrobe_O[4] O
FrameStrobe_O[5] O
FrameStrobe_O[6] O
FrameStrobe_O[7] O
FrameStrobe_O[8] O
FrameStrobe_O[9] O
N1BEG[0] O
N1BEG[1] O
N1BEG[2] O
N1BEG[3] O
N2BEG[0] O
N2BEG[1] O
N2BEG[2] O
N2BEG[3] O
N2BEG[4] O
N2BEG[5] O
N2BEG[6] O
N2BEG[7] O
N2BEGb[0] O
N2BEGb[1] O
N2BEGb[2] O
N2BEGb[3] O
N2BEGb[4] O
N2BEGb[5] O
N2BEGb[6] O
N2BEGb[7] O
N4BEG[0] O
N4BEG[10] O
N4BEG[11] O
N4BEG[12] O
N4BEG[13] O
N4BEG[14] O
N4BEG[15] O
N4BEG[1] O
N4BEG[2] O
N4BEG[3] O
N4BEG[4] O
N4BEG[5] O
N4BEG[6] O
N4BEG[7] O
N4BEG[8] O
N4BEG[9] O
NN4BEG[0] O
NN4BEG[10] O
NN4BEG[11] O
NN4BEG[12] O
NN4BEG[13] O
NN4BEG[14] O
NN4BEG[15] O
NN4BEG[1] O
NN4BEG[2] O
NN4BEG[3] O
NN4BEG[4] O
NN4BEG[5] O
NN4BEG[6] O
NN4BEG[7] O
NN4BEG[8] O
NN4BEG[9] O
S1END[0] I
S1END[1] I
S1END[2] I
S1END[3] I
S2END[0] I
S2END[1] I
S2END[2] I
S2END[3] I
S2END[4] I
S2END[5] I
S2END[6] I
S2END[7] I
S2MID[0] I
S2MID[1] I
S2MID[2] I
S2MID[3] I
S2MID[4] I
S2MID[5] I
S2MID[6] I
S2MID[7] I
S4END[0] I
S4END[10] I
S4END[11] I
S4END[12] I
S4END[13] I
S4END[14] I
S4END[15] I
S4END[1] I
S4END[2] I
S4END[3] I
S4END[4] I
S4END[5] I
S4END[6] I
S4END[7] I
S4END[8] I
S4END[9] I
SS4END[0] I
SS4END[10] I
SS4END[11] I
SS4END[12] I
SS4END[13] I
SS4END[14] I
SS4END[15] I
SS4END[1] I
SS4END[2] I
SS4END[3] I
SS4END[4] I
SS4END[5] I
SS4END[6] I
SS4END[7] I
SS4END[8] I
SS4END[9] I
UserCLK I
UserCLKo O

*D_NET *1 0.000709891
*CONN
*P FrameStrobe[0] I
*I *1271:A I *D sky130_fd_sc_hd__buf_1
*CAP
1 FrameStrobe[0] 0.000354945
2 *1271:A 0.000354945
*RES
1 FrameStrobe[0] *1271:A 45.2086 
*END

*D_NET *2 0.000673477
*CONN
*P FrameStrobe[10] I
*I *1282:A I *D sky130_fd_sc_hd__clkbuf_1
*CAP
1 FrameStrobe[10] 0.000336739
2 *1282:A 0.000336739
*RES
1 FrameStrobe[10] *1282:A 45.3536 
*END

*D_NET *3 0.000671906
*CONN
*P FrameStrobe[11] I
*I *1293:A I *D sky130_fd_sc_hd__clkbuf_1
*CAP
1 FrameStrobe[11] 0.000335953
2 *1293:A 0.000335953
*RES
1 FrameStrobe[11] *1293:A 45.2086 
*END

*D_NET *4 0.000671906