*SPEF "ieee 1481-1999"
*DESIGN "W_IO"
*DATE "11:11:11 Fri 11 11, 1111"
*VENDOR "OpenRCX"
*PROGRAM "Parallel Extraction"
*VERSION "1.0"
*DESIGN_FLOW "NAME_SCOPE LOCAL" "PIN_CAP NONE"
*DIVIDER /
*DELIMITER :
*BUS_DELIMITER []
*T_UNIT 1 NS
*C_UNIT 1 PF
*R_UNIT 1 OHM
*L_UNIT 1 HENRY

*NAME_MAP
*1 A_I_top
*2 A_O_top
*3 A_T_top
*4 A_config_C_bit0
*5 A_config_C_bit1
*6 A_config_C_bit2
*7 A_config_C_bit3
*8 B_I_top
*9 B_O_top
*10 B_T_top
*11 B_config_C_bit0
*12 B_config_C_bit1
*13 B_config_C_bit2
*14 B_config_C_bit3
*15 E1BEG[0]
*16 E1BEG[1]
*17 E1BEG[2]
*18 E1BEG[3]
*19 E2BEG[0]
*20 E2BEG[1]
*21 E2BEG[2]
*22 E2BEG[3]
*23 E2BEG[4]
*24 E2BEG[5]
*25 E2BEG[6]
*26 E2BEG[7]
*27 E2BEGb[0]
*28 E2BEGb[1]
*29 E2BEGb[2]
*30 E2BEGb[3]
*31 E2BEGb[4]
*32 E2BEGb[5]
*33 E2BEGb[6]
*34 E2BEGb[7]
*35 E6BEG[0]
*36 E6BEG[10]
*37 E6BEG[11]
*38 E6BEG[1]
*39 E6BEG[2]
*40 E6BEG[3]
*41 E6BEG[4]
*42 E6BEG[5]
*43 E6BEG[6]
*44 E6BEG[7]
*45 E6BEG[8]
*46 E6BEG[9]
*47 EE4BEG[0]
*48 EE4BEG[10]
*49 EE4BEG[11]
*50 EE4BEG[12]
*51 EE4BEG[13]
*52 EE4BEG[14]
*53 EE4BEG[15]
*54 EE4BEG[1]
*55 EE4BEG[2]
*56 EE4BEG[3]
*57 EE4BEG[4]
*58 EE4BEG[5]
*59 EE4BEG[6]
*60 EE4BEG[7]
*61 EE4BEG[8]
*62 EE4BEG[9]
*63 FrameData[0]
*64 FrameData[10]
*65 FrameData[11]
*66 FrameData[12]
*67 FrameData[13]
*68 FrameData[14]
*69 FrameData[15]
*70 FrameData[16]
*71 FrameData[17]
*72 FrameData[18]
*73 FrameData[19]
*74 FrameData[1]
*75 FrameData[20]
*76 FrameData[21]
*77 FrameData[22]
*78 FrameData[23]
*79 FrameData[24]
*80 FrameData[25]
*81 FrameData[26]
*82 FrameData[27]
*83 FrameData[28]
*84 FrameData[29]
*85 FrameData[2]
*86 FrameData[30]
*87 FrameData[31]
*88 FrameData[3]
*89 FrameData[4]
*90 FrameData[5]
*91 FrameData[6]
*92 FrameData[7]
*93 FrameData[8]
*94 FrameData[9]
*95 FrameData_O[0]
*96 FrameData_O[10]
*97 FrameData_O[11]
*98 FrameData_O[12]
*99 FrameData_O[13]
*100 FrameData_O[14]
*101 FrameData_O[15]
*102 FrameData_O[16]
*103 FrameData_O[17]
*104 FrameData_O[18]
*105 FrameData_O[19]
*106 FrameData_O[1]
*107 FrameData_O[20]
*108 FrameData_O[21]
*109 FrameData_O[22]
*110 FrameData_O[23]
*111 FrameData_O[24]
*112 FrameData_O[25]
*113 FrameData_O[26]
*114 FrameData_O[27]
*115 FrameData_O[28]
*116 FrameData_O[29]
*117 FrameData_O[2]
*118 FrameData_O[30]
*119 FrameData_O[31]
*120 FrameData_O[3]
*121 FrameData_O[4]
*122 FrameData_O[5]
*123 FrameData_O[6]
*124 FrameData_O[7]
*125 FrameData_O[8]
*126 FrameData_O[9]
*127 FrameStrobe[0]
*128 FrameStrobe[10]
*129 FrameStrobe[11]
*130 FrameStrobe[12]
*131 FrameStrobe[13]
*132 FrameStrobe[14]
*133 FrameStrobe[15]
*134 FrameStrobe[16]
*135 FrameStrobe[17]
*136 FrameStrobe[18]
*137 FrameStrobe[19]
*138 FrameStrobe[1]
*139 FrameStrobe[2]
*140 FrameStrobe[3]
*141 FrameStrobe[4]
*142 FrameStrobe[5]
*143 FrameStrobe[6]
*144 FrameStrobe[7]
*145 FrameStrobe[8]
*146 FrameStrobe[9]
*147 FrameStrobe_O[0]
*148 FrameStrobe_O[10]
*149 FrameStrobe_O[11]
*150 FrameStrobe_O[12]
*151 FrameStrobe_O[13]
*152 FrameStrobe_O[14]
*153 FrameStrobe_O[15]
*154 FrameStrobe_O[16]
*155 FrameStrobe_O[17]
*156 FrameStrobe_O[18]
*157 FrameStrobe_O[19]
*158 FrameStrobe_O[1]
*159 FrameStrobe_O[2]
*160 FrameStrobe_O[3]
*161 FrameStrobe_O[4]
*162 FrameStrobe_O[5]
*163 FrameStrobe_O[6]
*164 FrameStrobe_O[7]
*165 FrameStrobe_O[8]
*166 FrameStrobe_O[9]
*167 UserCLK
*168 UserCLKo
*171 W1END[0]
*172 W1END[1]
*173 W1END[2]
*174 W1END[3]
*175 W2END[0]
*176 W2END[1]
*177 W2END[2]
*178 W2END[3]
*179 W2END[4]
*180 W2END[5]
*181 W2END[6]
*182 W2END[7]
*183 W2MID[0]
*184 W2MID[1]
*185 W2MID[2]
*186 W2MID[3]
*187 W2MID[4]
*188 W2MID[5]
*189 W2MID[6]
*190 W2MID[7]
*191 W6END[0]
*192 W6END[10]
*193 W6END[11]
*194 W6END[1]
*195 W6END[2]
*196 W6END[3]
*197 W6END[4]
*198 W6END[5]
*199 W6END[6]
*200 W6END[7]
*201 W6END[8]
*202 W6END[9]
*203 WW4END[0]
*204 WW4END[10]
*205 WW4END[11]
*206 WW4END[12]
*207 WW4END[13]
*208 WW4END[14]
*209 WW4END[15]
*210 WW4END[1]
*211 WW4END[2]
*212 WW4END[3]
*213 WW4END[4]
*214 WW4END[5]
*215 WW4END[6]
*216 WW4END[7]
*217 WW4END[8]
*218 WW4END[9]
*219 A_I
*220 A_O
*221 A_Q
*222 A_T
*223 B_I
*224 B_O
*225 B_Q
*226 B_T
*227 ConfigBits\[0\]
*228 ConfigBits\[100\]
*229 ConfigBits\[101\]
*230 ConfigBits\[102\]
*231 ConfigBits\[103\]
*232 ConfigBits\[104\]
*233 ConfigBits\[105\]
*234 ConfigBits\[106\]
*235 ConfigBits\[107\]
*236 ConfigBits\[108\]
*237 ConfigBits\[109\]
*238 ConfigBits\[10\]
*239 ConfigBits\[110\]
*240 ConfigBits\[111\]
*241 ConfigBits\[112\]
*242 ConfigBits\[113\]
*243 ConfigBits\[11\]
*244 ConfigBits\[12\]
*245 ConfigBits\[13\]
*246 ConfigBits\[14\]
*247 ConfigBits\[15\]
*248 ConfigBits\[16\]
*249 ConfigBits\[17\]
*250 ConfigBits\[18\]
*251 ConfigBits\[19\]
*252 ConfigBits\[1\]
*253 ConfigBits\[20\]
*254 ConfigBits\[21\]
*255 ConfigBits\[22\]
*256 ConfigBits\[23\]
*257 ConfigBits\[24\]
*258 ConfigBits\[25\]
*259 ConfigBits\[26\]
*260 ConfigBits\[27\]
*261 ConfigBits\[28\]
*262 ConfigBits\[29\]
*263 ConfigBits\[2\]
*264 ConfigBits\[30\]
*265 ConfigBits\[31\]
*266 ConfigBits\[32\]
*267 ConfigBits\[33\]
*268 ConfigBits\[34\]
*269 ConfigBits\[35\]
*270 ConfigBits\[36\]
*271 ConfigBits\[37\]
*272 ConfigBits\[38\]
*273 ConfigBits\[39\]
*274 ConfigBits\[3\]
*275 ConfigBits\[40\]
*276 ConfigBits\[41\]
*277 ConfigBits\[42\]
*278 ConfigBits\[43\]
*279 ConfigBits\[44\]
*280 ConfigBits\[45\]
*281 ConfigBits\[46\]
*282 ConfigBits\[47\]
*283 ConfigBits\[48\]
*284 ConfigBits\[49\]
*285 ConfigBits\[4\]
*286 ConfigBits\[50\]
*287 ConfigBits\[51\]
*288 ConfigBits\[52\]
*289 ConfigBits\[53\]
*290 ConfigBits\[54\]
*291 ConfigBits\[55\]
*292 ConfigBits\[56\]
*293 ConfigBits\[57\]
*294 ConfigBits\[58\]
*295 ConfigBits\[59\]
*296 ConfigBits\[5\]
*297 ConfigBits\[60\]
*298 ConfigBits\[61\]
*299 ConfigBits\[62\]
*300 ConfigBits\[63\]
*301 ConfigBits\[64\]
*302 ConfigBits\[65\]
*303 ConfigBits\[66\]
*304 ConfigBits\[67\]
*305 ConfigBits\[68\]
*306 ConfigBits\[69\]
*307 ConfigBits\[6\]
*308 ConfigBits\[70\]
*309 ConfigBits\[71\]
*310 ConfigBits\[72\]
*311 ConfigBits\[73\]
*312 ConfigBits\[74\]
*313 ConfigBits\[75\]
*314 ConfigBits\[76\]
*315 ConfigBits\[77\]
*316 ConfigBits\[78\]
*317 ConfigBits\[79\]
*318 ConfigBits\[7\]
*319 ConfigBits\[80\]
*320 ConfigBits\[81\]
*321 ConfigBits\[82\]
*322 ConfigBits\[83\]
*323 ConfigBits\[84\]
*324 ConfigBits\[85\]
*325 ConfigBits\[86\]
*326 ConfigBits\[87\]
*327 ConfigBits\[88\]
*328 ConfigBits\[89\]
*329 ConfigBits\[8\]
*330 ConfigBits\[90\]
*331 ConfigBits\[91\]
*332 ConfigBits\[92\]
*333 ConfigBits\[93\]
*334 ConfigBits\[94\]
*335 ConfigBits\[95\]
*336 ConfigBits\[96\]
*337 ConfigBits\[97\]
*338 ConfigBits\[98\]
*339 ConfigBits\[99\]
*340 ConfigBits\[9\]
*341 ConfigBits_N\[0\]
*342 ConfigBits_N\[100\]
*343 ConfigBits_N\[101\]
*344 ConfigBits_N\[102\]
*345 ConfigBits_N\[103\]
*346 ConfigBits_N\[104\]
*347 ConfigBits_N\[105\]
*348 ConfigBits_N\[106\]
*349 ConfigBits_N\[107\]
*350 ConfigBits_N\[108\]
*351 ConfigBits_N\[109\]
*352 ConfigBits_N\[10\]
*353 ConfigBits_N\[110\]
*354 ConfigBits_N\[111\]
*355 ConfigBits_N\[112\]
*356 ConfigBits_N\[113\]
*357 ConfigBits_N\[11\]
*358 ConfigBits_N\[12\]
*359 ConfigBits_N\[13\]
*360 ConfigBits_N\[14\]
*361 ConfigBits_N\[15\]
*362 ConfigBits_N\[16\]
*363 ConfigBits_N\[17\]
*364 ConfigBits_N\[18\]
*365 ConfigBits_N\[19\]
*366 ConfigBits_N\[1\]
*367 ConfigBits_N\[20\]
*368 ConfigBits_N\[21\]
*369 ConfigBits_N\[22\]
*370 ConfigBits_N\[23\]
*371 ConfigBits_N\[24\]
*372 ConfigBits_N\[25\]
*373 ConfigBits_N\[26\]
*374 ConfigBits_N\[27\]
*375 ConfigBits_N\[28\]
*376 ConfigBits_N\[29\]
*377 ConfigBits_N\[2\]
*378 ConfigBits_N\[30\]
*379 ConfigBits_N\[31\]
*380 ConfigBits_N\[32\]
*381 ConfigBits_N\[33\]
*382 ConfigBits_N\[34\]
*383 ConfigBits_N\[35\]
*384 ConfigBits_N\[36\]
*385 ConfigBits_N\[37\]
*386 ConfigBits_N\[38\]
*387 ConfigBits_N\[39\]
*388 ConfigBits_N\[3\]
*389 ConfigBits_N\[40\]
*390 ConfigBits_N\[41\]
*391 ConfigBits_N\[42\]
*392 ConfigBits_N\[43\]
*393 ConfigBits_N\[44\]
*394 ConfigBits_N\[45\]
*395 ConfigBits_N\[46\]
*396 ConfigBits_N\[47\]
*397 ConfigBits_N\[48\]
*398 ConfigBits_N\[49\]
*399 ConfigBits_N\[4\]
*400 ConfigBits_N\[50\]
*401 ConfigBits_N\[51\]
*402 ConfigBits_N\[52\]
*403 ConfigBits_N\[53\]
*404 ConfigBits_N\[54\]
*405 ConfigBits_N\[55\]
*406 ConfigBits_N\[56\]
*407 ConfigBits_N\[57\]
*408 ConfigBits_N\[58\]
*409 ConfigBits_N\[59\]
*410 ConfigBits_N\[5\]
*411 ConfigBits_N\[60\]
*412 ConfigBits_N\[61\]
*413 ConfigBits_N\[62\]
*414 ConfigBits_N\[63\]
*415 ConfigBits_N\[64\]
*416 ConfigBits_N\[65\]
*417 ConfigBits_N\[66\]
*418 ConfigBits_N\[67\]
*419 ConfigBits_N\[68\]
*420 ConfigBits_N\[69\]
*421 ConfigBits_N\[6\]
*422 ConfigBits_N\[70\]
*423 ConfigBits_N\[71\]
*424 ConfigBits_N\[72\]
*425 ConfigBits_N\[73\]
*426 ConfigBits_N\[74\]
*427 ConfigBits_N\[75\]
*428 ConfigBits_N\[76\]
*429 ConfigBits_N\[77\]
*430 ConfigBits_N\[78\]
*431 ConfigBits_N\[79\]
*432 ConfigBits_N\[7\]
*433 ConfigBits_N\[80\]
*434 ConfigBits_N\[81\]
*435 ConfigBits_N\[82\]
*436 ConfigBits_N\[83\]
*437 ConfigBits_N\[84\]
*438 ConfigBits_N\[85\]
*439 ConfigBits_N\[86\]
*440 ConfigBits_N\[87\]
*441 ConfigBits_N\[88\]
*442 ConfigBits_N\[89\]
*443 ConfigBits_N\[8\]
*444 ConfigBits_N\[90\]
*445 ConfigBits_N\[91\]
*446 ConfigBits_N\[92\]
*447 ConfigBits_N\[93\]
*448 ConfigBits_N\[94\]
*449 ConfigBits_N\[95\]
*450 ConfigBits_N\[96\]
*451 ConfigBits_N\[97\]
*452 ConfigBits_N\[98\]
*453 ConfigBits_N\[99\]
*454 ConfigBits_N\[9\]
*455 FrameData_O_i\[0\]
*456 FrameData_O_i\[10\]
*457 FrameData_O_i\[11\]
*458 FrameData_O_i\[12\]
*459 FrameData_O_i\[13\]
*460 FrameData_O_i\[14\]
*461 FrameData_O_i\[15\]
*462 FrameData_O_i\[16\]
*463 FrameData_O_i\[17\]
*464 FrameData_O_i\[18\]
*465 FrameData_O_i\[19\]
*466 FrameData_O_i\[1\]
*467 FrameData_O_i\[20\]
*468 FrameData_O_i\[21\]
*469 FrameData_O_i\[22\]
*470 FrameData_O_i\[23\]
*471 FrameData_O_i\[24\]
*472 FrameData_O_i\[25\]
*473 FrameData_O_i\[26\]
*474 FrameData_O_i\[27\]
*475 FrameData_O_i\[28\]
*476 FrameData_O_i\[29\]
*477 FrameData_O_i\[2\]
*478 FrameData_O_i\[30\]
*479 FrameData_O_i\[31\]
*480 FrameData_O_i\[3\]
*481 FrameData_O_i\[4\]
*482 FrameData_O_i\[5\]
*483 FrameData_O_i\[6\]
*484 FrameData_O_i\[7\]
*485 FrameData_O_i\[8\]
*486 FrameData_O_i\[9\]
*487 FrameStrobe_O_i\[0\]
*488 FrameStrobe_O_i\[10\]
*489 FrameStrobe_O_i\[11\]
*490 FrameStrobe_O_i\[12\]
*491 FrameStrobe_O_i\[13\]
*492 FrameStrobe_O_i\[14\]
*493 FrameStrobe_O_i\[15\]
*494 FrameStrobe_O_i\[16\]
*495 FrameStrobe_O_i\[17\]
*496 FrameStrobe_O_i\[18\]
*497 FrameStrobe_O_i\[19\]
*498 FrameStrobe_O_i\[1\]
*499 FrameStrobe_O_i\[2\]
*500 FrameStrobe_O_i\[3\]
*501 FrameStrobe_O_i\[4\]
*502 FrameStrobe_O_i\[5\]
*503 FrameStrobe_O_i\[6\]
*504 FrameStrobe_O_i\[7\]
*505 FrameStrobe_O_i\[8\]
*506 FrameStrobe_O_i\[9\]
*507 Inst_W_IO_switch_matrix/inst_cus_mux161_buf_A_I/cus_mux41_buf_out0
*508 Inst_W_IO_switch_matrix/inst_cus_mux161_buf_A_I/cus_mux41_buf_out1
*509 Inst_W_IO_switch_matrix/inst_cus_mux161_buf_A_I/cus_mux41_buf_out2
*510 Inst_W_IO_switch_matrix/inst_cus_mux161_buf_A_I/cus_mux41_buf_out3
*511 Inst_W_IO_switch_matrix/inst_cus_mux161_buf_B_I/cus_mux41_buf_out0
*512 Inst_W_IO_switch_matrix/inst_cus_mux161_buf_B_I/cus_mux41_buf_out1
*513 Inst_W_IO_switch_matrix/inst_cus_mux161_buf_B_I/cus_mux41_buf_out2
*514 Inst_W_IO_switch_matrix/inst_cus_mux161_buf_B_I/cus_mux41_buf_out3
*515 Inst_W_IO_switch_matrix/inst_cus_mux21_E1BEG0/AIN\[0\]
*516 Inst_W_IO_switch_matrix/inst_cus_mux21_E1BEG0/AIN\[1\]
*517 Inst_W_IO_switch_matrix/inst_cus_mux21_E1BEG0/_0_
*518 Inst_W_IO_switch_matrix/inst_cus_mux21_E1BEG0/_1_
*519 Inst_W_IO_switch_matrix/inst_cus_mux21_E1BEG1/AIN\[0\]
*520 Inst_W_IO_switch_matrix/inst_cus_mux21_E1BEG1/AIN\[1\]
*521 Inst_W_IO_switch_matrix/inst_cus_mux21_E1BEG1/_0_
*522 Inst_W_IO_switch_matrix/inst_cus_mux21_E1BEG1/_1_
*523 Inst_W_IO_switch_matrix/inst_cus_mux21_E1BEG2/AIN\[0\]
*524 Inst_W_IO_switch_matrix/inst_cus_mux21_E1BEG2/AIN\[1\]
*525 Inst_W_IO_switch_matrix/inst_cus_mux21_E1BEG2/_0_
*526 Inst_W_IO_switch_matrix/inst_cus_mux21_E1BEG2/_1_
*527 Inst_W_IO_switch_matrix/inst_cus_mux21_E1BEG3/AIN\[0\]
*528 Inst_W_IO_switch_matrix/inst_cus_mux21_E1BEG3/AIN\[1\]
*529 Inst_W_IO_switch_matrix/inst_cus_mux21_E1BEG3/_0_
*530 Inst_W_IO_switch_matrix/inst_cus_mux21_E1BEG3/_1_
*531 Inst_W_IO_switch_matrix/inst_cus_mux81_buf_A_T/cus_mux21_inst/AIN\[0\]
*532 Inst_W_IO_switch_matrix/inst_cus_mux81_buf_A_T/cus_mux21_inst/AIN\[1\]
*533 Inst_W_IO_switch_matrix/inst_cus_mux81_buf_A_T/cus_mux21_inst/_0_
*534 Inst_W_IO_switch_matrix/inst_cus_mux81_buf_A_T/cus_mux21_inst/_1_
*535 Inst_W_IO_switch_matrix/inst_cus_mux81_buf_A_T/cus_mux41_buf_out0
*536 Inst_W_IO_switch_matrix/inst_cus_mux81_buf_A_T/cus_mux41_buf_out1
*537 Inst_W_IO_switch_matrix/inst_cus_mux81_buf_B_T/cus_mux21_inst/AIN\[0\]
*538 Inst_W_IO_switch_matrix/inst_cus_mux81_buf_B_T/cus_mux21_inst/AIN\[1\]
*539 Inst_W_IO_switch_matrix/inst_cus_mux81_buf_B_T/cus_mux21_inst/_0_
*540 Inst_W_IO_switch_matrix/inst_cus_mux81_buf_B_T/cus_mux21_inst/_1_
*541 Inst_W_IO_switch_matrix/inst_cus_mux81_buf_B_T/cus_mux41_buf_out0
*542 Inst_W_IO_switch_matrix/inst_cus_mux81_buf_B_T/cus_mux41_buf_out1
*543 net1
*544 net10
*545 net100
*546 net101
*547 net102
*548 net103
*549 net104
*550 net105
*551 net106
*552 net107
*553 net108
*554 net109
*555 net11
*556 net110
*557 net111
*558 net112
*559 net113
*560 net114
*561 net115
*562 net116
*563 net117
*564 net118
*565 net119
*566 net12
*567 net120
*568 net121
*569 net122
*570 net123
*571 net124
*572 net125
*573 net126
*574 net127
*575 net128
*576 net129
*577 net13
*578 net130
*579 net131
*580 net132
*581 net133
*582 net134
*583 net135
*584 net136
*585 net137
*586 net138
*587 net139
*588 net14
*589 net140
*590 net141
*591 net142
*592 net143
*593 net144
*594 net145
*595 net146
*596 net147
*597 net148
*598 net149
*599 net15
*600 net150
*601 net151
*602 net152
*603 net153
*604 net154
*605 net155
*606 net156
*607 net157
*608 net158
*609 net159
*610 net16
*611 net160
*612 net161
*613 net162
*614 net163
*615 net164
*616 net165
*617 net166
*618 net167
*619 net168
*620 net169
*621 net17
*622 net170
*623 net171
*624 net172
*625 net173
*626 net174
*627 net175
*628 net176
*629 net177
*630 net178
*631 net179
*632 net18
*633 net180
*634 net181
*635 net182
*636 net183
*637 net184
*638 net185
*639 net186
*640 net187
*641 net188
*642 net189
*643 net19
*644 net190
*645 net191
*646 net192
*647 net193
*648 net194
*649 net195
*650 net196
*651 net197
*652 net198
*653 net199
*654 net2
*655 net20
*656 net200
*657 net201
*658 net202
*659 net203
*660 net204
*661 net205
*662 net206
*663 net207
*664 net208
*665 net209
*666 net21
*667 net210
*668 net211
*669 net212
*670 net213
*671 net214
*672 net215
*673 net216
*674 net217
*675 net218
*676 net219
*677 net22
*678 net23
*679 net24
*680 net25
*681 net26
*682 net27
*683 net28
*684 net29
*685 net3
*686 net30
*687 net31
*688 net32
*689 net33
*690 net34
*691 net35
*692 net36
*693 net37
*694 net38
*695 net39
*696 net4
*697 net40
*698 net41
*699 net42
*700 net43
*701 net44
*702 net45
*703 net46
*704 net47
*705 net48
*706 net49
*707 net5
*708 net50
*709 net51
*710 net52
*711 net53
*712 net54
*713 net55
*714 net56
*715 net57
*716 net58
*717 net59
*718 net6
*719 net60
*720 net61
*721 net62
*722 net63
*723 net64
*724 net65
*725 net66
*726 net67
*727 net68
*728 net69
*729 net7
*730 net70
*731 net71
*732 net72
*733 net73
*734 net74
*735 net75
*736 net76
*737 net77
*738 net78
*739 net79
*740 net8
*741 net80
*742 net81
*743 net82
*744 net83
*745 net84
*746 net85
*747 net86
*748 net87
*749 net88
*750 net89
*751 net9
*752 net90
*753 net91
*754 net92
*755 net93
*756 net94
*757 net95
*758 net96
*759 net97
*760 net98
*761 net99
*762 ANTENNA_1
*763 ANTENNA_2
*764 FILLER_0_0_102
*765 FILLER_0_0_106
*766 FILLER_0_0_110
*767 FILLER_0_0_113
*768 FILLER_0_0_118
*769 FILLER_0_0_122
*770 FILLER_0_0_126
*771 FILLER_0_0_145
*772 FILLER_0_0_23
*773 FILLER_0_0_27
*774 FILLER_0_0_3
*775 FILLER_0_0_39
*776 FILLER_0_0_47
*777 FILLER_0_0_54
*778 FILLER_0_0_57
*779 FILLER_0_0_62
*780 FILLER_0_0_66
*781 FILLER_0_0_70
*782 FILLER_0_0_74
*783 FILLER_0_0_78
*784 FILLER_0_0_88
*785 FILLER_0_0_94
*786 FILLER_0_0_98
*787 FILLER_0_10_109
*788 FILLER_0_10_141
*789 FILLER_0_10_17
*790 FILLER_0_10_25
*791 FILLER_0_10_29
*792 FILLER_0_10_41
*793 FILLER_0_10_53
*794 FILLER_0_10_65
*795 FILLER_0_10_77
*796 FILLER_0_10_83
*797 FILLER_0_10_85
*798 FILLER_0_10_9
*799 FILLER_0_11_18
*800 FILLER_0_11_30
*801 FILLER_0_11_42
*802 FILLER_0_11_54
*803 FILLER_0_11_57
*804 FILLER_0_11_69
*805 FILLER_0_11_87
*806 FILLER_0_12_103
*807 FILLER_0_12_129
*808 FILLER_0_12_135
*809 FILLER_0_12_141
*810 FILLER_0_12_21
*811 FILLER_0_12_27
*812 FILLER_0_12_29
*813 FILLER_0_12_41
*814 FILLER_0_12_53
*815 FILLER_0_12_61
*816 FILLER_0_12_77
*817 FILLER_0_12_83
*818 FILLER_0_12_85
*819 FILLER_0_12_9
*820 FILLER_0_12_97
*821 FILLER_0_13_12
*822 FILLER_0_13_143
*823 FILLER_0_13_24
*824 FILLER_0_13_36
*825 FILLER_0_13_48
*826 FILLER_0_13_52
*827 FILLER_0_13_57
*828 FILLER_0_13_61
*829 FILLER_0_13_66
*830 FILLER_0_13_89
*831 FILLER_0_14_130
*832 FILLER_0_14_141
*833 FILLER_0_14_18
*834 FILLER_0_14_26
*835 FILLER_0_14_29
*836 FILLER_0_14_41
*837 FILLER_0_15_134
*838 FILLER_0_15_21
*839 FILLER_0_15_33
*840 FILLER_0_15_45
*841 FILLER_0_15_53
*842 FILLER_0_15_57
*843 FILLER_0_15_61
*844 FILLER_0_15_73
*845 FILLER_0_15_82
*846 FILLER_0_15_90
*847 FILLER_0_16_141
*848 FILLER_0_16_16
*849 FILLER_0_16_29
*850 FILLER_0_16_41
*851 FILLER_0_16_53
*852 FILLER_0_16_64
*853 FILLER_0_16_76
*854 FILLER_0_16_85
*855 FILLER_0_16_9
*856 FILLER_0_16_93
*857 FILLER_0_17_107
*858 FILLER_0_17_111
*859 FILLER_0_17_126
*860 FILLER_0_17_145
*861 FILLER_0_17_20
*862 FILLER_0_17_3
*863 FILLER_0_17_32
*864 FILLER_0_17_44
*865 FILLER_0_17_57
*866 FILLER_0_17_8
*867 FILLER_0_17_83
*868 FILLER_0_17_95
*869 FILLER_0_18_101
*870 FILLER_0_18_105
*871 FILLER_0_18_141
*872 FILLER_0_18_21
*873 FILLER_0_18_27
*874 FILLER_0_18_29
*875 FILLER_0_18_41
*876 FILLER_0_18_85
*877 FILLER_0_18_9
*878 FILLER_0_19_103
*879 FILLER_0_19_111
*880 FILLER_0_19_113
*881 FILLER_0_19_21
*882 FILLER_0_19_33
*883 FILLER_0_19_57
*884 FILLER_0_19_66
*885 FILLER_0_19_9
*886 FILLER_0_1_101
*887 FILLER_0_1_109
*888 FILLER_0_1_117
*889 FILLER_0_1_125
*890 FILLER_0_1_132
*891 FILLER_0_1_144
*892 FILLER_0_1_15
*893 FILLER_0_1_31
*894 FILLER_0_1_43
*895 FILLER_0_1_53
*896 FILLER_0_1_61
*897 FILLER_0_1_69
*898 FILLER_0_1_77
*899 FILLER_0_1_84
*900 FILLER_0_1_92
*901 FILLER_0_1_96
*902 FILLER_0_20_109
*903 FILLER_0_20_12
*904 FILLER_0_20_141
*905 FILLER_0_20_24
*906 FILLER_0_20_29
*907 FILLER_0_20_41
*908 FILLER_0_20_53
*909 FILLER_0_20_74
*910 FILLER_0_20_82
*911 FILLER_0_20_85
*912 FILLER_0_20_97
*913 FILLER_0_21_105
*914 FILLER_0_21_111
*915 FILLER_0_21_113
*916 FILLER_0_21_18
*917 FILLER_0_21_30
*918 FILLER_0_21_42
*919 FILLER_0_21_54
*920 FILLER_0_21_57
*921 FILLER_0_21_69
*922 FILLER_0_21_81
*923 FILLER_0_21_93
*924 FILLER_0_22_100
*925 FILLER_0_22_112
*926 FILLER_0_22_141
*927 FILLER_0_22_21
*928 FILLER_0_22_27
*929 FILLER_0_22_29
*930 FILLER_0_22_41
*931 FILLER_0_22_53
*932 FILLER_0_22_9
*933 FILLER_0_23_102
*934 FILLER_0_23_110
*935 FILLER_0_23_12
*936 FILLER_0_23_24
*937 FILLER_0_23_36
*938 FILLER_0_23_48
*939 FILLER_0_23_57
*940 FILLER_0_24_122
*941 FILLER_0_24_141
*942 FILLER_0_24_18
*943 FILLER_0_24_26
*944 FILLER_0_24_29
*945 FILLER_0_24_41
*946 FILLER_0_24_49
*947 FILLER_0_24_81
*948 FILLER_0_24_85
*949 FILLER_0_24_97
*950 FILLER_0_25_109
*951 FILLER_0_25_113
*952 FILLER_0_25_119
*953 FILLER_0_25_12
*954 FILLER_0_25_144
*955 FILLER_0_25_24
*956 FILLER_0_25_36
*957 FILLER_0_25_48
*958 FILLER_0_25_75
*959 FILLER_0_25_87
*960 FILLER_0_25_93
*961 FILLER_0_26_10
*962 FILLER_0_26_141
*963 FILLER_0_26_22
*964 FILLER_0_26_29
*965 FILLER_0_26_41
*966 FILLER_0_26_62
*967 FILLER_0_26_74
*968 FILLER_0_26_82
*969 FILLER_0_27_102
*970 FILLER_0_27_110
*971 FILLER_0_27_18
*972 FILLER_0_27_30
*973 FILLER_0_27_42
*974 FILLER_0_27_54
*975 FILLER_0_27_57
*976 FILLER_0_27_65
*977 FILLER_0_28_138
*978 FILLER_0_28_141
*979 FILLER_0_28_18
*980 FILLER_0_28_26
*981 FILLER_0_28_29
*982 FILLER_0_28_41
*983 FILLER_0_28_53
*984 FILLER_0_28_76
*985 FILLER_0_28_85
*986 FILLER_0_28_93
*987 FILLER_0_29_113
*988 FILLER_0_29_129
*989 FILLER_0_29_19
*990 FILLER_0_29_31
*991 FILLER_0_29_43
*992 FILLER_0_29_55
*993 FILLER_0_29_57
*994 FILLER_0_29_7
*995 FILLER_0_29_86
*996 FILLER_0_29_90
*997 FILLER_0_2_109
*998 FILLER_0_2_121
*999 FILLER_0_2_133
*1000 FILLER_0_2_139
*1001 FILLER_0_2_141
*1002 FILLER_0_2_145
*1003 FILLER_0_2_15
*1004 FILLER_0_2_27
*1005 FILLER_0_2_29
*1006 FILLER_0_2_3
*1007 FILLER_0_2_41
*1008 FILLER_0_2_53
*1009 FILLER_0_2_65
*1010 FILLER_0_2_77
*1011 FILLER_0_2_83
*1012 FILLER_0_2_85
*1013 FILLER_0_2_97
*1014 FILLER_0_30_105
*1015 FILLER_0_30_139
*1016 FILLER_0_30_141
*1017 FILLER_0_30_145
*1018 FILLER_0_30_19
*1019 FILLER_0_30_27
*1020 FILLER_0_30_29
*1021 FILLER_0_30_41
*1022 FILLER_0_30_53
*1023 FILLER_0_30_7
*1024 FILLER_0_30_70
*1025 FILLER_0_30_82
*1026 FILLER_0_30_85
*1027 FILLER_0_30_89
*1028 FILLER_0_31_108
*1029 FILLER_0_31_117
*1030 FILLER_0_31_124
*1031 FILLER_0_31_19
*1032 FILLER_0_31_31
*1033 FILLER_0_31_39
*1034 FILLER_0_31_57
*1035 FILLER_0_31_61
*1036 FILLER_0_31_65
*1037 FILLER_0_31_7
*1038 FILLER_0_31_77
*1039 FILLER_0_31_96
*1040 FILLER_0_32_144
*1041 FILLER_0_32_15
*1042 FILLER_0_32_27
*1043 FILLER_0_32_29
*1044 FILLER_0_32_3
*1045 FILLER_0_32_41
*1046 FILLER_0_32_66
*1047 FILLER_0_32_73
*1048 FILLER_0_32_81
*1049 FILLER_0_32_85
*1050 FILLER_0_32_93
*1051 FILLER_0_33_101
*1052 FILLER_0_33_111
*1053 FILLER_0_33_117
*1054 FILLER_0_33_124
*1055 FILLER_0_33_141
*1056 FILLER_0_33_19
*1057 FILLER_0_33_31
*1058 FILLER_0_33_43
*1059 FILLER_0_33_55
*1060 FILLER_0_33_57
*1061 FILLER_0_33_61
*1062 FILLER_0_33_7
*1063 FILLER_0_33_72
*1064 FILLER_0_33_89
*1065 FILLER_0_34_106
*1066 FILLER_0_34_141
*1067 FILLER_0_34_145
*1068 FILLER_0_34_19
*1069 FILLER_0_34_27
*1070 FILLER_0_34_29
*1071 FILLER_0_34_41
*1072 FILLER_0_34_49
*1073 FILLER_0_34_7
*1074 FILLER_0_35_107
*1075 FILLER_0_35_113
*1076 FILLER_0_35_135
*1077 FILLER_0_35_142
*1078 FILLER_0_35_15
*1079 FILLER_0_35_27
*1080 FILLER_0_35_3
*1081 FILLER_0_35_39
*1082 FILLER_0_35_61
*1083 FILLER_0_35_70
*1084 FILLER_0_35_76
*1085 FILLER_0_36_109
*1086 FILLER_0_36_13
*1087 FILLER_0_36_141
*1088 FILLER_0_36_145
*1089 FILLER_0_36_21
*1090 FILLER_0_36_25
*1091 FILLER_0_36_29
*1092 FILLER_0_36_41
*1093 FILLER_0_36_53
*1094 FILLER_0_36_78
*1095 FILLER_0_36_85
*1096 FILLER_0_36_93
*1097 FILLER_0_37_108
*1098 FILLER_0_37_19
*1099 FILLER_0_37_31
*1100 FILLER_0_37_43
*1101 FILLER_0_37_55
*1102 FILLER_0_37_7
*1103 FILLER_0_37_72
*1104 FILLER_0_37_96
*1105 FILLER_0_38_115
*1106 FILLER_0_38_119
*1107 FILLER_0_38_135
*1108 FILLER_0_38_139
*1109 FILLER_0_38_145
*1110 FILLER_0_38_15
*1111 FILLER_0_38_27
*1112 FILLER_0_38_29
*1113 FILLER_0_38_3
*1114 FILLER_0_38_41
*1115 FILLER_0_38_83
*1116 FILLER_0_38_85
*1117 FILLER_0_38_93
*1118 FILLER_0_39_19
*1119 FILLER_0_39_31
*1120 FILLER_0_39_43
*1121 FILLER_0_39_55
*1122 FILLER_0_39_57
*1123 FILLER_0_39_69
*1124 FILLER_0_39_7
*1125 FILLER_0_39_75
*1126 FILLER_0_39_91
*1127 FILLER_0_3_105
*1128 FILLER_0_3_111
*1129 FILLER_0_3_113
*1130 FILLER_0_3_125
*1131 FILLER_0_3_133
*1132 FILLER_0_3_15
*1133 FILLER_0_3_27
*1134 FILLER_0_3_3
*1135 FILLER_0_3_39
*1136 FILLER_0_3_51
*1137 FILLER_0_3_55
*1138 FILLER_0_3_57
*1139 FILLER_0_3_69
*1140 FILLER_0_3_81
*1141 FILLER_0_3_93
*1142 FILLER_0_40_105
*1143 FILLER_0_40_137
*1144 FILLER_0_40_141
*1145 FILLER_0_40_19
*1146 FILLER_0_40_27
*1147 FILLER_0_40_29
*1148 FILLER_0_40_41
*1149 FILLER_0_40_53
*1150 FILLER_0_40_65
*1151 FILLER_0_40_7
*1152 FILLER_0_40_77
*1153 FILLER_0_40_83
*1154 FILLER_0_40_85
*1155 FILLER_0_40_97
*1156 FILLER_0_41_102
*1157 FILLER_0_41_110
*1158 FILLER_0_41_113
*1159 FILLER_0_41_15
*1160 FILLER_0_41_27
*1161 FILLER_0_41_3
*1162 FILLER_0_41_39
*1163 FILLER_0_41_78
*1164 FILLER_0_41_86
*1165 FILLER_0_42_100
*1166 FILLER_0_42_104
*1167 FILLER_0_42_126
*1168 FILLER_0_42_136
*1169 FILLER_0_42_141
*1170 FILLER_0_42_145
*1171 FILLER_0_42_19
*1172 FILLER_0_42_27
*1173 FILLER_0_42_29
*1174 FILLER_0_42_41
*1175 FILLER_0_42_47
*1176 FILLER_0_42_7
*1177 FILLER_0_43_143
*1178 FILLER_0_43_19
*1179 FILLER_0_43_31
*1180 FILLER_0_43_43
*1181 FILLER_0_43_55
*1182 FILLER_0_43_57
*1183 FILLER_0_43_7
*1184 FILLER_0_43_73
*1185 FILLER_0_43_79
*1186 FILLER_0_43_95
*1187 FILLER_0_44_106
*1188 FILLER_0_44_133
*1189 FILLER_0_44_141
*1190 FILLER_0_44_145
*1191 FILLER_0_44_15
*1192 FILLER_0_44_27
*1193 FILLER_0_44_29
*1194 FILLER_0_44_3
*1195 FILLER_0_44_41
*1196 FILLER_0_44_53
*1197 FILLER_0_44_65
*1198 FILLER_0_45_107
*1199 FILLER_0_45_111
*1200 FILLER_0_45_13
*1201 FILLER_0_45_25
*1202 FILLER_0_45_37
*1203 FILLER_0_45_49
*1204 FILLER_0_45_55
*1205 FILLER_0_45_57
*1206 FILLER_0_45_69
*1207 FILLER_0_45_81
*1208 FILLER_0_45_89
*1209 FILLER_0_46_101
*1210 FILLER_0_46_117
*1211 FILLER_0_46_141
*1212 FILLER_0_46_145
*1213 FILLER_0_46_22
*1214 FILLER_0_46_29
*1215 FILLER_0_46_41
*1216 FILLER_0_46_53
*1217 FILLER_0_46_7
*1218 FILLER_0_46_76
*1219 FILLER_0_46_85
*1220 FILLER_0_46_97
*1221 FILLER_0_47_111
*1222 FILLER_0_47_134
*1223 FILLER_0_47_142
*1224 FILLER_0_47_15
*1225 FILLER_0_47_21
*1226 FILLER_0_47_3
*1227 FILLER_0_47_33
*1228 FILLER_0_47_57
*1229 FILLER_0_47_82
*1230 FILLER_0_47_94
*1231 FILLER_0_48_100
*1232 FILLER_0_48_104
*1233 FILLER_0_48_123
*1234 FILLER_0_48_141
*1235 FILLER_0_48_145
*1236 FILLER_0_48_19
*1237 FILLER_0_48_27
*1238 FILLER_0_48_29
*1239 FILLER_0_48_7
*1240 FILLER_0_48_77
*1241 FILLER_0_48_83
*1242 FILLER_0_49_103
*1243 FILLER_0_49_111
*1244 FILLER_0_49_113
*1245 FILLER_0_49_19
*1246 FILLER_0_49_31
*1247 FILLER_0_49_43
*1248 FILLER_0_49_55
*1249 FILLER_0_49_57
*1250 FILLER_0_49_65
*1251 FILLER_0_49_7
*1252 FILLER_0_4_109
*1253 FILLER_0_4_121
*1254 FILLER_0_4_129
*1255 FILLER_0_4_145
*1256 FILLER_0_4_15
*1257 FILLER_0_4_27
*1258 FILLER_0_4_29
*1259 FILLER_0_4_3
*1260 FILLER_0_4_41
*1261 FILLER_0_4_53
*1262 FILLER_0_4_65
*1263 FILLER_0_4_77
*1264 FILLER_0_4_83
*1265 FILLER_0_4_85
*1266 FILLER_0_4_97
*1267 FILLER_0_50_109
*1268 FILLER_0_50_141
*1269 FILLER_0_50_145
*1270 FILLER_0_50_15
*1271 FILLER_0_50_27
*1272 FILLER_0_50_29
*1273 FILLER_0_50_3
*1274 FILLER_0_50_41
*1275 FILLER_0_50_53
*1276 FILLER_0_50_72
*1277 FILLER_0_50_85
*1278 FILLER_0_51_134
*1279 FILLER_0_51_144
*1280 FILLER_0_51_19
*1281 FILLER_0_51_31
*1282 FILLER_0_51_43
*1283 FILLER_0_51_55
*1284 FILLER_0_51_57
*1285 FILLER_0_51_69
*1286 FILLER_0_51_7
*1287 FILLER_0_51_96
*1288 FILLER_0_52_130
*1289 FILLER_0_52_141
*1290 FILLER_0_52_145
*1291 FILLER_0_52_19
*1292 FILLER_0_52_27
*1293 FILLER_0_52_29
*1294 FILLER_0_52_41
*1295 FILLER_0_52_53
*1296 FILLER_0_52_65
*1297 FILLER_0_52_7
*1298 FILLER_0_52_77
*1299 FILLER_0_52_83
*1300 FILLER_0_53_113
*1301 FILLER_0_53_132
*1302 FILLER_0_53_15
*1303 FILLER_0_53_27
*1304 FILLER_0_53_3
*1305 FILLER_0_53_39
*1306 FILLER_0_53_51
*1307 FILLER_0_53_55
*1308 FILLER_0_53_57
*1309 FILLER_0_53_61
*1310 FILLER_0_53_98
*1311 FILLER_0_54_105
*1312 FILLER_0_54_141
*1313 FILLER_0_54_145
*1314 FILLER_0_54_19
*1315 FILLER_0_54_27
*1316 FILLER_0_54_29
*1317 FILLER_0_54_41
*1318 FILLER_0_54_53
*1319 FILLER_0_54_65
*1320 FILLER_0_54_7
*1321 FILLER_0_54_81
*1322 FILLER_0_54_85
*1323 FILLER_0_54_97
*1324 FILLER_0_55_110
*1325 FILLER_0_55_19
*1326 FILLER_0_55_31
*1327 FILLER_0_55_43
*1328 FILLER_0_55_55
*1329 FILLER_0_55_57
*1330 FILLER_0_55_69
*1331 FILLER_0_55_7
*1332 FILLER_0_55_81
*1333 FILLER_0_56_100
*1334 FILLER_0_56_111
*1335 FILLER_0_56_139
*1336 FILLER_0_56_144
*1337 FILLER_0_56_15
*1338 FILLER_0_56_27
*1339 FILLER_0_56_29
*1340 FILLER_0_56_3
*1341 FILLER_0_56_41
*1342 FILLER_0_56_53
*1343 FILLER_0_56_65
*1344 FILLER_0_56_77
*1345 FILLER_0_56_83
*1346 FILLER_0_56_88
*1347 FILLER_0_57_13
*1348 FILLER_0_57_25
*1349 FILLER_0_57_37
*1350 FILLER_0_57_49
*1351 FILLER_0_57_55
*1352 FILLER_0_57_57
*1353 FILLER_0_57_63
*1354 FILLER_0_57_7
*1355 FILLER_0_57_94
*1356 FILLER_0_58_105
*1357 FILLER_0_58_144
*1358 FILLER_0_58_19
*1359 FILLER_0_58_27
*1360 FILLER_0_58_29
*1361 FILLER_0_58_41
*1362 FILLER_0_58_53
*1363 FILLER_0_58_65
*1364 FILLER_0_58_7
*1365 FILLER_0_58_77
*1366 FILLER_0_58_83
*1367 FILLER_0_58_85
*1368 FILLER_0_58_94
*1369 FILLER_0_58_99
*1370 FILLER_0_59_105
*1371 FILLER_0_59_111
*1372 FILLER_0_59_113
*1373 FILLER_0_59_132
*1374 FILLER_0_59_15
*1375 FILLER_0_59_27
*1376 FILLER_0_59_3
*1377 FILLER_0_59_39
*1378 FILLER_0_59_51
*1379 FILLER_0_59_55
*1380 FILLER_0_59_57
*1381 FILLER_0_59_69
*1382 FILLER_0_59_81
*1383 FILLER_0_59_93
*1384 FILLER_0_5_105
*1385 FILLER_0_5_111
*1386 FILLER_0_5_113
*1387 FILLER_0_5_125
*1388 FILLER_0_5_143
*1389 FILLER_0_5_15
*1390 FILLER_0_5_27
*1391 FILLER_0_5_3
*1392 FILLER_0_5_39
*1393 FILLER_0_5_51
*1394 FILLER_0_5_55
*1395 FILLER_0_5_57
*1396 FILLER_0_5_69
*1397 FILLER_0_5_81
*1398 FILLER_0_5_93
*1399 FILLER_0_60_138
*1400 FILLER_0_60_144
*1401 FILLER_0_60_19
*1402 FILLER_0_60_27
*1403 FILLER_0_60_29
*1404 FILLER_0_60_41
*1405 FILLER_0_60_53
*1406 FILLER_0_60_65
*1407 FILLER_0_60_7
*1408 FILLER_0_60_77
*1409 FILLER_0_60_83
*1410 FILLER_0_60_85
*1411 FILLER_0_60_97
*1412 FILLER_0_61_110
*1413 FILLER_0_61_19
*1414 FILLER_0_61_31
*1415 FILLER_0_61_43
*1416 FILLER_0_61_55
*1417 FILLER_0_61_57
*1418 FILLER_0_61_69
*1419 FILLER_0_61_7
*1420 FILLER_0_61_81
*1421 FILLER_0_61_93
*1422 FILLER_0_62_104
*1423 FILLER_0_62_144
*1424 FILLER_0_62_20
*1425 FILLER_0_62_29
*1426 FILLER_0_62_3
*1427 FILLER_0_62_41
*1428 FILLER_0_62_53
*1429 FILLER_0_62_65
*1430 FILLER_0_62_77
*1431 FILLER_0_62_8
*1432 FILLER_0_62_83
*1433 FILLER_0_62_85
*1434 FILLER_0_62_92
*1435 FILLER_0_63_10
*1436 FILLER_0_63_101
*1437 FILLER_0_63_22
*1438 FILLER_0_63_34
*1439 FILLER_0_63_46
*1440 FILLER_0_63_54
*1441 FILLER_0_63_57
*1442 FILLER_0_63_69
*1443 FILLER_0_63_77
*1444 FILLER_0_63_82
*1445 FILLER_0_63_94
*1446 FILLER_0_64_102
*1447 FILLER_0_64_110
*1448 FILLER_0_64_141
*1449 FILLER_0_64_21
*1450 FILLER_0_64_27
*1451 FILLER_0_64_29
*1452 FILLER_0_64_41
*1453 FILLER_0_64_53
*1454 FILLER_0_64_65
*1455 FILLER_0_64_77
*1456 FILLER_0_64_83
*1457 FILLER_0_64_85
*1458 FILLER_0_64_9
*1459 FILLER_0_64_90
*1460 FILLER_0_65_105
*1461 FILLER_0_65_111